
  EPA STORM WATER MANAGEMENT MODEL - VERSION 5.1 (Build 5.2.0.dev4)
  --------------------------------------------------------------

  
  **********************           Volume        Volume
  Rainfall Dependent I/I        acre-feet      10^6 gal
  **********************        ---------     ---------
  Sewershed Rainfall ......       103.293        33.660
  RDII Produced ...........        14.439         4.705
  RDII Ratio ..............         0.140
  
  
  *********************************************************
  NOTE: The summary statistics displayed in this report are
  based on results found at every computational time step,  
  not just on results from each reporting time step.
  *********************************************************
  
  ****************
  Analysis Options
  ****************
  Flow Units ............... CFS
  Process Models:
    Rainfall/Runoff ........ YES
    RDII ................... YES
    Snowmelt ............... NO
    Groundwater ............ NO
    Flow Routing ........... YES
    Ponding Allowed ........ YES
    Water Quality .......... YES
  Infiltration Method ...... GREEN_AMPT
  Flow Routing Method ...... DYNWAVE
  Starting Date ............ 07/05/2014 12:00:00
  Ending Date .............. 07/10/2014 00:05:00
  Antecedent Dry Days ...... 5.0
  Report Time Step ......... 00:01:00
  Wet Time Step ............ 00:01:00
  Dry Time Step ............ 00:01:00
  Routing Time Step ........ 60.00 sec
  Variable Time Step ....... YES
  Maximum Trials ........... 8
  Number of Threads ........ 1
  Head Tolerance ........... 0.005000 ft
  
  
  **************************        Volume         Depth
  Runoff Quantity Continuity     acre-feet        inches
  **************************     ---------       -------
  Total Precipitation ......        75.437         4.395
  Evaporation Loss .........         0.000         0.000
  Infiltration Loss ........        22.686         1.322
  Surface Runoff ...........        52.135         3.038
  Final Storage ............         0.633         0.037
  Continuity Error (%) .....        -0.023
  
  
  **************************           TSS
  Runoff Quality Continuity            lbs
  **************************    ----------
  Initial Buildup ..........      3394.520
  Surface Buildup ..........      2597.654
  Wet Deposition ...........         0.000
  Sweeping Removal .........         0.000
  Infiltration Loss ........         0.000
  BMP Removal ..............         0.000
  Surface Runoff ...........      2726.536
  Remaining Buildup ........      3265.638
  Continuity Error (%) .....         0.000
  
  
  **************************        Volume        Volume
  Flow Routing Continuity        acre-feet      10^6 gal
  **************************     ---------     ---------
  Dry Weather Inflow .......         0.000         0.000
  Wet Weather Inflow .......        52.085        16.973
  Groundwater Inflow .......         0.000         0.000
  RDII Inflow ..............        14.439         4.705
  External Inflow ..........         0.000         0.000
  External Outflow .........        33.714        10.986
  Flooding Loss ............        10.482         3.416
  Evaporation Loss .........         0.000         0.000
  Exfiltration Loss ........         0.000         0.000
  Initial Stored Volume ....         0.000         0.000
  Final Stored Volume ......        22.604         7.366
  Continuity Error (%) .....        -0.414
  
  
  **************************           TSS
  Quality Routing Continuity           lbs
  **************************    ----------
  Dry Weather Inflow .......         0.000
  Wet Weather Inflow .......      2723.154
  Groundwater Inflow .......         0.000
  RDII Inflow ..............         0.000
  External Inflow ..........         0.000
  External Outflow .........      1313.200
  Flooding Loss ............       575.632
  Exfiltration Loss ........         0.000
  Mass Reacted .............         0.000
  Initial Stored Mass ......         0.000
  Final Stored Mass ........       843.475
  Continuity Error (%) .....        -0.336
  
  
  *************************
  Highest Continuity Errors
  *************************
  Node J23 (-2.90%)
  Node 93-49921 (1.14%)
  
  
  ***************************
  Time-Step Critical Elements
  ***************************
  Link C11 (73.51%)
  Link C09 (18.82%)
  Link C22 (6.34%)
  
  
  ********************************
  Highest Flow Instability Indexes
  ********************************
  Link OR47 (15)
  Link C12 (15)
  Link OR43 (2)
  Link C22 (2)
  Link OR34 (2)
  
  
  *************************
  Routing Time Step Summary
  *************************
  Minimum Time Step           :     2.90 sec
  Average Time Step           :    15.20 sec
  Maximum Time Step           :    60.00 sec
  Percent in Steady State     :     0.00
  Average Iterations per Step :     2.05
  Percent Not Converging      :     0.64
  
  
  ***************************
  Subcatchment Runoff Summary
  ***************************
  
  --------------------------------------------------------------------------------------------------------
                            Total      Total      Total      Total      Total       Total     Peak  Runoff
                           Precip      Runon       Evap      Infil     Runoff      Runoff   Runoff   Coeff
  Subcatchment                 in         in         in         in         in    10^6 gal      CFS
  --------------------------------------------------------------------------------------------------------
  102                        4.40       0.00       0.00       1.54       2.82        0.22    14.68   0.642
  103                        4.40       0.00       0.00       2.00       2.38        0.36    28.45   0.541
  115                        4.40       0.00       0.00       2.12       2.25        0.63    33.44   0.512
  120                        4.40       0.00       0.00       1.62       2.74        0.50    34.96   0.624
  1472                       4.40       0.00       0.00       1.23       3.13        0.27    17.62   0.712
  1497                       4.40       0.00       0.00       0.47       3.88        1.58    85.48   0.882
  1499                       4.40       0.00       0.00       0.16       4.18        2.86   143.62   0.951
  1503                       4.40       0.00       0.00       0.86       3.49        0.13     7.47   0.794
  1506                       4.40       0.00       0.00       1.71       2.66        0.73    52.28   0.604
  1570                       4.40       0.00       0.00       2.30       2.08        0.44    36.86   0.473
  1648                       4.40       0.00       0.00       1.93       2.44        0.18    13.37   0.556
  1736                       4.40       0.00       0.00       1.57       2.79        1.14    78.64   0.636
  1780                       4.40       0.00       0.00       2.11       2.27        0.14    11.17   0.516
  54                         4.40       0.00       0.00       0.44       3.90        3.85   205.75   0.888
  57                         4.40       0.00       0.00       2.56       1.82        0.50    28.12   0.414
  62                         4.40       0.00       0.00       2.13       2.24        0.64    53.44   0.510
  93                         4.40       0.00       0.00       1.57       2.80        0.62    44.16   0.636
  94                         4.40       0.00       0.00       2.10       2.27        0.79    65.26   0.517
  97                         4.40       0.00       0.00       1.75       2.62        1.40   102.19   0.595
  
  
  ****************************
  Subcatchment Washoff Summary
  ****************************
  
  ----------------------------------
                                 TSS
  Subcatchment                   lbs
  ----------------------------------
  102                         37.132
  103                         69.169
  115                        123.985
  120                         86.688
  1472                        43.370
  1497                       218.182
  1499                       378.752
  1503                        18.792
  1506                       130.151
  1570                        90.225
  1648                        33.839
  1736                       195.369
  1780                        28.111
  54                         531.526
  57                         101.974
  62                         126.874
  93                         107.152
  94                         154.227
  97                         251.020
  ----------------------------------
  System                    2726.536
  
  
  ******************
  Node Depth Summary
  ******************
  
  ---------------------------------------------------------------------------------
                                 Average  Maximum  Maximum  Time of Max    Reported
                                   Depth    Depth      HGL   Occurrence   Max Depth
  Node                 Type         Feet     Feet     Feet  days hr:min        Feet
  ---------------------------------------------------------------------------------
  J13                  JUNCTION     0.06     1.00   889.17     0  12:06        1.00
  J14                  JUNCTION     0.10     1.00   882.00     0  11:53        1.00
  J15                  JUNCTION     0.20     1.00   872.00     0  10:47        1.00
  J18                  JUNCTION     0.28     1.00   875.22     0  11:52        1.00
  J19                  JUNCTION     0.15     0.23   858.51     1  04:02        0.23
  J22                  JUNCTION     0.04     0.34   879.34     0  12:25        0.34
  J23                  JUNCTION     0.10     0.27   868.27     0  13:05        0.27
  J24                  JUNCTION     0.49     0.53   846.53     2  03:24        0.53
  J25                  JUNCTION     0.29     0.33   832.83     4  03:46        0.33
  J26                  JUNCTION     0.43     0.68   822.18     0  12:07        0.68
  ZOF1                 OUTFALL      0.00     0.00   810.00     0  00:00        0.00
  93-49743             STORAGE      1.53    11.89   886.11     0  12:45       11.89
  93-49868             STORAGE      0.26     5.48   893.65     0  12:23        5.48
  93-49919             STORAGE      0.98     4.29   872.29     0  13:05        4.29
  93-49921             STORAGE      7.57     9.19   855.19     2  03:23        9.19
  93-50074             STORAGE      3.95     9.37   867.65     1  04:01        9.37
  93-50076             STORAGE      2.25     3.04   835.54     4  03:46        3.04
  93-50077             STORAGE      1.40     4.13   814.13     0  16:35        4.13
  93-50081             STORAGE      0.84     2.16   823.66     0  12:07        2.16
  93-50225             STORAGE      0.65     5.84   876.84     0  16:18        5.84
  93-90357             STORAGE      0.37     6.92   885.92     0  12:25        6.92
  93-90358             STORAGE      0.34     5.83   886.83     0  12:20        5.83
  
  
  *******************
  Node Inflow Summary
  *******************
  
  -------------------------------------------------------------------------------------------------
                                  Maximum  Maximum                  Lateral       Total        Flow
                                  Lateral    Total  Time of Max      Inflow      Inflow     Balance
                                   Inflow   Inflow   Occurrence      Volume      Volume       Error
  Node                 Type           CFS      CFS  days hr:min    10^6 gal    10^6 gal     Percent
  -------------------------------------------------------------------------------------------------
  J13                  JUNCTION      0.00     5.35     0  12:23           0       0.787       0.019
  J14                  JUNCTION      0.00     8.68     0  12:20           0        1.49      -0.008
  J15                  JUNCTION      0.00     7.43     0  14:01           0        2.16       0.002
  J18                  JUNCTION      0.00     9.41     0  12:45           0        4.15      -0.006
  J19                  JUNCTION      0.00     3.33     1  04:01           0        4.98      -0.064
  J22                  JUNCTION      0.00     3.47     0  12:25           0        0.66       0.009
  J23                  JUNCTION      0.00     2.63     0  13:05           0        2.17      -2.816
  J24                  JUNCTION      0.00     3.03     2  03:23           0        7.49       0.015
  J25                  JUNCTION      0.00     2.64     4  03:46           0        5.95       0.003
  J26                  JUNCTION      0.00     4.49     0  12:07           0        6.07       0.013
  ZOF1                 OUTFALL       0.00     7.41     0  16:35           0          11       0.000
  93-49743             STORAGE     172.14   172.14     0  12:00        4.16        4.15       0.003
  93-49868             STORAGE      65.26    65.26     0  12:00       0.787       0.787      -0.016
  93-49919             STORAGE     119.81   121.09     0  12:00        1.67        2.23      -0.126
  93-49921             STORAGE     197.71   202.49     0  12:00        5.31        12.5       1.154
  93-50074             STORAGE     129.64   134.28     0  12:00         2.2        4.98      -0.140
  93-50076             STORAGE      28.12    29.80     0  12:00       0.501        7.99       0.094
  93-50077             STORAGE     206.23   210.07     0  12:00        5.19        11.3       0.008
  93-50081             STORAGE       7.47     8.42     0  12:00       0.127        6.08       0.015
  93-50225             STORAGE      28.45    36.05     0  12:00       0.362        2.09      -0.134
  93-90357             STORAGE      51.53    51.53     0  12:00       0.661        0.66      -0.002
  93-90358             STORAGE      52.28    56.74     0  12:00       0.731        1.49      -0.008
  
  
  **********************
  Node Surcharge Summary
  **********************
  
  Surcharging occurs when water rises above the top of the highest conduit.
  ---------------------------------------------------------------------
                                               Max. Height   Min. Depth
                                   Hours       Above Crown    Below Rim
  Node                 Type      Surcharged           Feet         Feet
  ---------------------------------------------------------------------
  J13                  JUNCTION        1.43          0.000        0.000
  J14                  JUNCTION        5.16          0.000        0.000
  J15                  JUNCTION       11.60          0.000        0.000
  J18                  JUNCTION       15.17          0.000        0.000
  
  
  *********************
  Node Flooding Summary
  *********************
  
  Flooding refers to all water that overflows a node, whether it ponds or not.
  --------------------------------------------------------------------------
                                                             Total   Maximum
                                 Maximum   Time of Max       Flood    Ponded
                        Hours       Rate    Occurrence      Volume     Depth
  Node                 Flooded       CFS   days hr:min    10^6 gal      Feet
  --------------------------------------------------------------------------
  J13                     1.43      1.03      0  12:21       0.024     0.000
  J14                     5.16      4.20      0  12:26       0.421     0.000
  J15                    11.59      7.43      0  14:01       1.594     0.000
  J18                    15.17      5.14      0  12:58       1.376     0.000
  
  
  **********************
  Storage Volume Summary
  **********************
  
  --------------------------------------------------------------------------------------------------
                         Average     Avg  Evap Exfil       Maximum     Max    Time of Max    Maximum
                          Volume    Pcnt  Pcnt  Pcnt        Volume    Pcnt     Occurrence    Outflow
  Storage Unit          1000 ft3    Full  Loss  Loss      1000 ft3    Full    days hr:min        CFS
  --------------------------------------------------------------------------------------------------
  93-49743                16.599       6     0     0       183.350      67       0  12:45       9.41
  93-49868                 1.552       1     0     0        52.676      43       0  12:23       5.35
  93-49919                35.552       8     0     0       176.259      39       0  13:05       3.36
  93-49921               810.011      72     0     0      1014.559      90       2  03:23       3.03
  93-50074               126.821      18     0     0       355.882      52       1  04:01       3.33
  93-50076               198.307      18     0     0       272.447      25       4  03:46       2.64
  93-50077               108.528      10     0     0       342.055      33       0  16:35       7.41
  93-50081                 0.857       3     0     0         3.586      13       0  12:07       4.49
  93-50225                 5.779       1     0     0        61.747      11       0  16:18       6.89
  93-90357                 1.938       3     0     0        46.297      62       0  12:25       3.47
  93-90358                 1.654       1     0     0        44.582      32       0  12:20       8.68
  
  
  ***********************
  Outfall Loading Summary
  ***********************
  
  -------------------------------------------------------------------------
                         Flow       Avg       Max       Total         Total
                         Freq      Flow      Flow      Volume           TSS
  Outfall Node           Pcnt       CFS       CFS    10^6 gal           lbs
  -------------------------------------------------------------------------
  ZOF1                  99.87      3.93      7.41      10.985      1313.274
  -------------------------------------------------------------------------
  System                99.87      3.93      7.41      10.985      1313.274
  
  
  ********************
  Link Flow Summary
  ********************
  
  -----------------------------------------------------------------------------
                                 Maximum  Time of Max   Maximum    Max/    Max/
                                  |Flow|   Occurrence   |Veloc|    Full    Full
  Link                 Type          CFS  days hr:min    ft/sec    Flow   Depth
  -----------------------------------------------------------------------------
  C08                  CONDUIT      5.31     0  11:51      6.90    0.96    1.00
  C09                  CONDUIT     18.46     0  03:17    >50.00    1.15    0.64
  C10                  CONDUIT      3.03     2  03:24      6.62    0.54    0.76
  C11                  CONDUIT      2.64     4  03:47      5.09    0.23    0.66
  C12                  CONDUIT      4.49     0  12:07      6.60    0.81    0.84
  C18                  CONDUIT      5.06     0  13:34      6.70    0.67    1.00
  C19                  CONDUIT      5.58     0  11:53      7.26    0.95    1.00
  C21                  CONDUIT      2.23     0  10:39      2.98    0.96    1.00
  C22                  CONDUIT      3.47     0  12:25      4.66    0.13    0.62
  C95-53307            CONDUIT      3.33     1  04:02     18.71    0.00    0.52
  OR34                 ORIFICE      5.35     0  12:23                          
  OR35                 ORIFICE      8.68     0  12:20                          
  OR36                 ORIFICE      6.89     0  16:18                          
  OR38                 ORIFICE      3.33     1  04:01                          
  OR39                 ORIFICE      9.41     0  12:45                          
  OR43                 ORIFICE      3.47     0  12:25                          
  OR44                 ORIFICE      2.63     0  13:05                          
  OR45                 ORIFICE      3.03     2  03:23                          
  OR46                 ORIFICE      2.64     4  03:46                          
  OR47                 ORIFICE      4.49     0  12:07                          
  OR48                 ORIFICE      7.41     0  16:35                          
  
  
  ***************************
  Flow Classification Summary
  ***************************
  
  -------------------------------------------------------------------------------------
                      Adjusted    ---------- Fraction of Time in Flow Class ---------- 
                       /Actual         Up    Down  Sub   Sup   Up    Down  Norm  Inlet 
  Conduit               Length    Dry  Dry   Dry   Crit  Crit  Crit  Crit  Ltd   Ctrl  
  -------------------------------------------------------------------------------------
  C08                     1.00   0.00  0.00  0.00  0.75  0.25  0.00  0.00  0.82  0.00
  C09                     1.00   0.00  0.01  0.00  0.81  0.18  0.00  0.00  0.97  0.00
  C10                     1.00   0.00  0.00  0.00  0.94  0.06  0.00  0.00  0.90  0.00
  C11                     1.00   0.00  0.00  0.00  0.04  0.96  0.00  0.00  0.99  0.00
  C12                     1.00   0.00  0.00  0.00  0.44  0.56  0.00  0.00  0.98  0.00
  C18                     1.00   0.00  0.00  0.00  0.96  0.04  0.00  0.00  0.40  0.00
  C19                     1.00   0.00  0.33  0.00  0.66  0.01  0.00  0.00  0.93  0.00
  C21                     1.00   0.00  0.00  0.00  0.99  0.01  0.00  0.00  0.81  0.00
  C22                     1.00   0.00  0.48  0.00  0.52  0.00  0.00  0.00  0.99  0.00
  C95-53307               1.00   0.00  0.00  0.00  0.99  0.00  0.00  0.00  0.98  0.00
  
  
  *************************
  Conduit Surcharge Summary
  *************************
  
  ----------------------------------------------------------------------------
                                                           Hours        Hours 
                         --------- Hours Full --------   Above Full   Capacity
  Conduit                Both Ends  Upstream  Dnstream   Normal Flow   Limited
  ----------------------------------------------------------------------------
  C08                        15.17     15.17     69.51      0.01         0.01
  C09                         0.01      0.01     99.63      0.05         0.01
  C10                         0.01      0.01     93.57      0.01         0.01
  C11                         0.01      0.01      0.74      0.01         0.01
  C12                         0.01      0.01     38.24      0.01         0.01
  C18                         1.43      1.43      6.23      0.01         0.01
  C19                         5.15      5.15     15.42      0.01         0.01
  C21                        11.59     11.59     34.20      0.01         0.01
  C22                         0.01      0.01     11.07      0.01         0.01
  C95-53307                   0.01      0.01     87.66      0.01         0.01
  
  
  ***************************
  Link Pollutant Load Summary
  ***************************
  
  ----------------------------------
                                 TSS
  Link                           lbs
  ----------------------------------
  C08                        284.587
  C09                        388.853
  C10                        934.995
  C11                        797.274
  C12                        815.050
  C18                        149.160
  C19                        197.070
  C21                        113.240
  C22                        127.323
  C95-53307                  628.984
  OR34                       154.107
  OR35                       279.119
  OR36                       393.398
  OR38                       608.112
  OR39                       467.733
  OR43                       127.224
  OR44                       382.908
  OR45                       934.900
  OR46                       797.248
  OR47                       814.992
  OR48                      1313.274
  

  Analysis begun on:  Mon Apr  1 18:20:21 2019
  Analysis ended on:  Mon Apr  1 18:20:26 2019
  Total elapsed time: 00:00:05