
  EPA STORM WATER MANAGEMENT MODEL - VERSION 5.1 (Build 5.2.0.dev4)
  --------------------------------------------------------------

  
  **********************           Volume        Volume
  Rainfall Dependent I/I        acre-feet      10^6 gal
  **********************        ---------     ---------
  Sewershed Rainfall ......        65.631        21.387
  RDII Produced ...........         8.789         2.864
  RDII Ratio ..............         0.134
  
  
  *********************************************************
  NOTE: The summary statistics displayed in this report are
  based on results found at every computational time step,  
  not just on results from each reporting time step.
  *********************************************************
  
  ****************
  Analysis Options
  ****************
  Flow Units ............... CFS
  Process Models:
    Rainfall/Runoff ........ YES
    RDII ................... YES
    Snowmelt ............... NO
    Groundwater ............ NO
    Flow Routing ........... YES
    Ponding Allowed ........ YES
    Water Quality .......... YES
  Infiltration Method ...... GREEN_AMPT
  Flow Routing Method ...... DYNWAVE
  Starting Date ............ 07/05/2014 12:00:00
  Ending Date .............. 07/10/2014 00:05:00
  Antecedent Dry Days ...... 5.0
  Report Time Step ......... 00:01:00
  Wet Time Step ............ 00:01:00
  Dry Time Step ............ 00:01:00
  Routing Time Step ........ 60.00 sec
  Variable Time Step ....... YES
  Maximum Trials ........... 8
  Number of Threads ........ 1
  Head Tolerance ........... 0.005000 ft
  
  
  **************************        Volume         Depth
  Runoff Quantity Continuity     acre-feet        inches
  **************************     ---------       -------
  Total Precipitation ......        47.932         2.793
  Evaporation Loss .........         0.000         0.000
  Infiltration Loss ........        16.674         0.972
  Surface Runoff ...........        30.635         1.785
  Final Storage ............         0.633         0.037
  Continuity Error (%) .....        -0.021
  
  
  **************************           TSS
  Runoff Quality Continuity            lbs
  **************************    ----------
  Initial Buildup ..........      3394.520
  Surface Buildup ..........      1924.259
  Wet Deposition ...........         0.000
  Sweeping Removal .........         0.000
  Infiltration Loss ........         0.000
  BMP Removal ..............         0.000
  Surface Runoff ...........      1941.059
  Remaining Buildup ........      3377.720
  Continuity Error (%) .....         0.000
  
  
  **************************        Volume        Volume
  Flow Routing Continuity        acre-feet      10^6 gal
  **************************     ---------     ---------
  Dry Weather Inflow .......         0.000         0.000
  Wet Weather Inflow .......        30.609         9.974
  Groundwater Inflow .......         0.000         0.000
  RDII Inflow ..............         8.790         2.864
  External Inflow ..........         0.000         0.000
  External Outflow .........        28.512         9.291
  Flooding Loss ............        10.496         3.420
  Evaporation Loss .........         0.000         0.000
  Exfiltration Loss ........         0.000         0.000
  Initial Stored Volume ....         0.000         0.000
  Final Stored Volume ......         0.577         0.188
  Continuity Error (%) .....        -0.473
  
  
  **************************           TSS
  Quality Routing Continuity           lbs
  **************************    ----------
  Dry Weather Inflow .......         0.000
  Wet Weather Inflow .......      1939.318
  Groundwater Inflow .......         0.000
  RDII Inflow ..............         0.000
  External Inflow ..........         0.000
  External Outflow .........      1358.351
  Flooding Loss ............       601.621
  Exfiltration Loss ........         0.000
  Mass Reacted .............         0.000
  Initial Stored Mass ......         0.000
  Final Stored Mass ........         6.706
  Continuity Error (%) .....        -1.411
  
  
  ***************************
  Time-Step Critical Elements
  ***************************
  Link C11 (71.73%)
  Link C09 (14.57%)
  Link C22 (1.17%)
  
  
  ********************************
  Highest Flow Instability Indexes
  ********************************
  Link C11 (31)
  Link OR46 (31)
  Link OR47 (24)
  Link OR35 (15)
  Link OR44 (10)
  
  
  *************************
  Routing Time Step Summary
  *************************
  Minimum Time Step           :     2.43 sec
  Average Time Step           :    17.92 sec
  Maximum Time Step           :    60.00 sec
  Percent in Steady State     :    -0.00
  Average Iterations per Step :     2.30
  Percent Not Converging      :     1.05
  
  
  ***************************
  Subcatchment Runoff Summary
  ***************************
  
  --------------------------------------------------------------------------------------------------------
                            Total      Total      Total      Total      Total       Total     Peak  Runoff
                           Precip      Runon       Evap      Infil     Runoff      Runoff   Runoff   Coeff
  Subcatchment                 in         in         in         in         in    10^6 gal      CFS
  --------------------------------------------------------------------------------------------------------
  102                        2.79       0.00       0.00       1.17       1.58        0.12     6.75   0.568
  103                        2.79       0.00       0.00       1.43       1.34        0.20    14.61   0.479
  115                        2.79       0.00       0.00       1.53       1.24        0.35    17.07   0.445
  120                        2.79       0.00       0.00       1.17       1.60        0.29    18.75   0.572
  1472                       2.79       0.00       0.00       0.92       1.83        0.16     9.27   0.657
  1497                       2.79       0.00       0.00       0.34       2.40        0.98    51.17   0.859
  1499                       2.79       0.00       0.00       0.11       2.62        1.80    87.95   0.939
  1503                       2.79       0.00       0.00       0.61       2.14        0.08     4.38   0.765
  1506                       2.79       0.00       0.00       1.31       1.46        0.40    22.99   0.522
  1570                       2.79       0.00       0.00       1.64       1.13        0.24    18.17   0.406
  1648                       2.79       0.00       0.00       1.47       1.30        0.10     5.51   0.464
  1736                       2.79       0.00       0.00       1.20       1.56        0.64    35.95   0.559
  1780                       2.79       0.00       0.00       1.61       1.16        0.07     4.34   0.417
  54                         2.79       0.00       0.00       0.33       2.41        2.38   120.70   0.863
  57                         2.79       0.00       0.00       1.87       0.90        0.25    12.18   0.323
  62                         2.79       0.00       0.00       1.52       1.25        0.36    27.84   0.449
  93                         2.79       0.00       0.00       1.17       1.59        0.35    22.14   0.569
  94                         2.79       0.00       0.00       1.50       1.27        0.44    34.63   0.456
  97                         2.79       0.00       0.00       1.32       1.45        0.77    47.95   0.519
  
  
  ****************************
  Subcatchment Washoff Summary
  ****************************
  
  ----------------------------------
                                 TSS
  Subcatchment                   lbs
  ----------------------------------
  102                         24.853
  103                         41.415
  115                         70.681
  120                         58.975
  1472                        32.521
  1497                       185.371
  1499                       322.781
  1503                        15.742
  1506                        81.590
  1570                        49.207
  1648                        19.393
  1736                       129.328
  1780                        14.971
  54                         451.353
  57                          50.481
  62                          73.154
  93                          72.186
  94                          89.904
  97                         157.154
  ----------------------------------
  System                    1941.059
  
  
  ******************
  Node Depth Summary
  ******************
  
  ---------------------------------------------------------------------------------
                                 Average  Maximum  Maximum  Time of Max    Reported
                                   Depth    Depth      HGL   Occurrence   Max Depth
  Node                 Type         Feet     Feet     Feet  days hr:min        Feet
  ---------------------------------------------------------------------------------
  J13                  JUNCTION     0.06     1.00   889.17     0  12:00        1.00
  J14                  JUNCTION     0.10     1.00   882.00     0  11:53        1.00
  J15                  JUNCTION     0.20     1.00   872.00     0  11:31        1.00
  J18                  JUNCTION     0.28     1.00   875.22     0  11:50        1.00
  J19                  JUNCTION     0.13     0.38   858.66     0  12:41        0.38
  J22                  JUNCTION     0.04     0.54   879.54     0  12:09        0.54
  J23                  JUNCTION     0.11     0.45   868.45     0  12:24        0.45
  J24                  JUNCTION     0.65     1.00   847.00     0  12:00        1.00
  J25                  JUNCTION     0.35     0.48   832.98     1  14:18        0.48
  J26                  JUNCTION     0.58     0.83   822.33     1  14:24        0.83
  ZOF1                 OUTFALL      0.00     0.00   810.00     0  00:00        0.00
  93-49743             STORAGE      0.68     6.80   881.02     0  12:19        6.80
  93-49868             STORAGE      0.14     3.27   891.44     0  12:11        3.27
  93-49919             STORAGE      0.30     2.07   870.07     0  12:24        2.07
  93-49921             STORAGE      2.10     4.99   850.99     0  20:00        4.99
  93-50074             STORAGE      0.65     3.93   862.21     0  12:40        3.93
  93-50076             STORAGE      0.98     1.55   834.05     1  14:17        1.55
  93-50077             STORAGE      2.08     3.22   813.22     1  00:20        3.22
  93-50081             STORAGE      1.22     1.89   823.39     1  14:36        1.89
  93-50225             STORAGE      0.42     4.52   875.52     0  12:47        4.52
  93-90357             STORAGE      0.10     3.17   882.17     0  12:09        3.17
  93-90358             STORAGE      0.24     4.11   885.11     0  12:12        4.10
  
  
  *******************
  Node Inflow Summary
  *******************
  
  -------------------------------------------------------------------------------------------------
                                  Maximum  Maximum                  Lateral       Total        Flow
                                  Lateral    Total  Time of Max      Inflow      Inflow     Balance
                                   Inflow   Inflow   Occurrence      Volume      Volume       Error
  Node                 Type           CFS      CFS  days hr:min    10^6 gal    10^6 gal     Percent
  -------------------------------------------------------------------------------------------------
  J13                  JUNCTION      0.00     7.86     0  12:11           0       0.442      -0.017
  J14                  JUNCTION      0.00     9.19     0  12:12           0       0.808      -0.008
  J15                  JUNCTION      0.00     9.79     0  12:47           0        1.21       0.032
  J18                  JUNCTION      0.00    12.56     0  12:19           0         2.4       0.038
  J19                  JUNCTION      0.00     9.83     0  12:40           0        3.28      -0.069
  J22                  JUNCTION      0.00     8.47     0  12:09           0       0.364       0.017
  J23                  JUNCTION      0.00     6.63     0  12:24           0         1.6       0.309
  J24                  JUNCTION      0.00    10.42     0  20:00           0        8.11       0.002
  J25                  JUNCTION      0.00     5.38     1  14:17           0        6.05       0.009
  J26                  JUNCTION      0.00     5.38     1  14:44           0        6.13       0.005
  ZOF1                 OUTFALL       0.00     6.85     1  00:20           0        9.29       0.000
  93-49743             STORAGE      81.87    81.87     0  12:00         2.4         2.4      -0.034
  93-49868             STORAGE      34.63    34.63     0  12:00       0.442       0.442       0.003
  93-49919             STORAGE      57.21    59.31     0  12:00       0.932         1.6      -0.132
  93-49921             STORAGE     116.08   129.74     0  12:00        3.25        8.13      -0.688
  93-50074             STORAGE      73.31    78.52     0  12:00        1.33        3.28      -0.052
  93-50076             STORAGE      12.18    17.75     0  12:00       0.249        6.13      -0.009
  93-50077             STORAGE     120.91   125.21     0  12:00        3.19        9.32      -0.001
  93-50081             STORAGE       4.38     6.85     0  12:00      0.0777        6.13      -0.006
  93-50225             STORAGE      14.61    26.79     0  12:00       0.204         1.2      -0.149
  93-90357             STORAGE      24.93    24.93     0  12:00       0.364       0.364      -0.004
  93-90358             STORAGE      22.99    29.74     0  12:00       0.401       0.808      -0.043
  
  
  **********************
  Node Surcharge Summary
  **********************
  
  Surcharging occurs when water rises above the top of the highest conduit.
  ---------------------------------------------------------------------
                                               Max. Height   Min. Depth
                                   Hours       Above Crown    Below Rim
  Node                 Type      Surcharged           Feet         Feet
  ---------------------------------------------------------------------
  J13                  JUNCTION        0.95          0.000        0.000
  J14                  JUNCTION        1.93          0.000        0.000
  J15                  JUNCTION        3.62          0.000        0.000
  J18                  JUNCTION        3.69          0.000        0.000
  J24                  JUNCTION       24.96          0.000        0.000
  
  
  *********************
  Node Flooding Summary
  *********************
  
  Flooding refers to all water that overflows a node, whether it ponds or not.
  --------------------------------------------------------------------------
                                                             Total   Maximum
                                 Maximum   Time of Max       Flood    Ponded
                        Hours       Rate    Occurrence      Volume     Depth
  Node                 Flooded       CFS   days hr:min    10^6 gal      Feet
  --------------------------------------------------------------------------
  J13                     0.95      2.16      0  12:12       0.035     0.000
  J14                     1.93      4.34      0  12:18       0.171     0.000
  J15                     3.62      7.91      0  12:46       0.539     0.000
  J18                     3.69      7.54      0  12:20       0.443     0.000
  J24                    24.96      4.90      0  20:07       2.233     0.000
  
  
  **********************
  Storage Volume Summary
  **********************
  
  --------------------------------------------------------------------------------------------------
                         Average     Avg  Evap Exfil       Maximum     Max    Time of Max    Maximum
                          Volume    Pcnt  Pcnt  Pcnt        Volume    Pcnt     Occurrence    Outflow
  Storage Unit          1000 ft3    Full  Loss  Loss      1000 ft3    Full    days hr:min        CFS
  --------------------------------------------------------------------------------------------------
  93-49743                 3.450       1     0     0        70.215      25       0  12:19      12.56
  93-49868                 0.296       0     0     0        18.859      15       0  12:11       7.86
  93-49919                 7.590       2     0     0        67.741      15       0  12:24       6.63
  93-49921               194.206      17     0     0       483.520      43       0  20:00      10.42
  93-50074                12.740       2     0     0        92.996      13       0  12:40       9.83
  93-50076                81.718       7     0     0       130.527      12       1  14:17       5.38
  93-50077               164.027      16     0     0       258.374      25       1  00:20       6.85
  93-50081                 1.641       6     0     0         2.906      10       1  14:36       5.38
  93-50225                 2.926       1     0     0        36.400       6       0  12:47       9.79
  93-90357                 0.233       0     0     0        13.241      18       0  12:09       8.47
  93-90358                 0.605       0     0     0        19.955      14       0  12:12       9.19
  
  
  ***********************
  Outfall Loading Summary
  ***********************
  
  -------------------------------------------------------------------------
                         Flow       Avg       Max       Total         Total
                         Freq      Flow      Flow      Volume           TSS
  Outfall Node           Pcnt       CFS       CFS    10^6 gal           lbs
  -------------------------------------------------------------------------
  ZOF1                  99.81      5.01      6.85       9.290      1358.349
  -------------------------------------------------------------------------
  System                99.81      5.01      6.85       9.290      1358.349
  
  
  ********************
  Link Flow Summary
  ********************
  
  -----------------------------------------------------------------------------
                                 Maximum  Time of Max   Maximum    Max/    Max/
                                  |Flow|   Occurrence   |Veloc|    Full    Full
  Link                 Type          CFS  days hr:min    ft/sec    Flow   Depth
  -----------------------------------------------------------------------------
  C08                  CONDUIT      5.90     0  11:49      7.64    1.06    1.00
  C09                  CONDUIT      6.63     0  12:24     10.89    0.41    0.72
  C10                  CONDUIT      5.90     1  13:01      8.76    1.06    1.00
  C11                  CONDUIT      5.38     1  14:18      8.61    0.47    0.74
  C12                  CONDUIT      5.38     1  14:45      7.15    0.97    0.91
  C18                  CONDUIT      6.75     0  12:00      8.91    0.89    1.00
  C19                  CONDUIT      5.98     0  11:52      7.76    1.02    1.00
  C21                  CONDUIT      2.55     0  11:41      3.46    1.10    1.00
  C22                  CONDUIT      8.47     0  12:09      7.45    0.31    0.69
  C95-53307            CONDUIT      9.83     0  12:41      2.48    0.01    0.41
  OR34                 ORIFICE      7.86     0  12:11                          
  OR35                 ORIFICE      9.19     0  12:12                          
  OR36                 ORIFICE      9.79     0  12:47                          
  OR38                 ORIFICE      9.83     0  12:40                          
  OR39                 ORIFICE     12.56     0  12:19                          
  OR43                 ORIFICE      8.47     0  12:09                          
  OR44                 ORIFICE      6.63     0  12:24                          
  OR45                 ORIFICE     10.42     0  20:00                          
  OR46                 ORIFICE      5.38     1  14:17                          
  OR47                 ORIFICE      5.38     1  14:44                          
  OR48                 ORIFICE      6.85     1  00:20                          
  
  
  ***************************
  Flow Classification Summary
  ***************************
  
  -------------------------------------------------------------------------------------
                      Adjusted    ---------- Fraction of Time in Flow Class ---------- 
                       /Actual         Up    Down  Sub   Sup   Up    Down  Norm  Inlet 
  Conduit               Length    Dry  Dry   Dry   Crit  Crit  Crit  Crit  Ltd   Ctrl  
  -------------------------------------------------------------------------------------
  C08                     1.00   0.00  0.00  0.00  0.15  0.85  0.00  0.00  0.34  0.00
  C09                     1.00   0.00  0.01  0.00  0.80  0.19  0.00  0.00  0.96  0.00
  C10                     1.00   0.00  0.00  0.00  0.58  0.41  0.00  0.00  0.66  0.00
  C11                     1.00   0.00  0.00  0.00  0.03  0.97  0.00  0.00  0.99  0.00
  C12                     1.00   0.00  0.00  0.00  0.15  0.85  0.00  0.00  0.38  0.00
  C18                     1.00   0.04  0.04  0.00  0.91  0.01  0.00  0.00  0.85  0.00
  C19                     1.00   0.00  0.05  0.00  0.93  0.02  0.00  0.00  0.96  0.00
  C21                     1.00   0.00  0.00  0.00  0.99  0.01  0.00  0.00  0.42  0.00
  C22                     1.00   0.00  0.25  0.00  0.73  0.02  0.00  0.00  0.99  0.00
  C95-53307               1.00   0.00  0.00  0.00  0.99  0.01  0.00  0.00  0.97  0.00
  
  
  *************************
  Conduit Surcharge Summary
  *************************
  
  ----------------------------------------------------------------------------
                                                           Hours        Hours 
                         --------- Hours Full --------   Above Full   Capacity
  Conduit                Both Ends  Upstream  Dnstream   Normal Flow   Limited
  ----------------------------------------------------------------------------
  C08                         3.69      3.69      9.76      0.05         0.01
  C09                         0.01      0.01     33.98      0.01         0.01
  C10                        22.75     24.96     33.87      1.74         0.01
  C11                         0.01      0.01     38.42      0.01         0.01
  C12                         0.01      0.01     47.96      0.01         0.01
  C18                         0.95      0.95      2.39      0.01         0.01
  C19                         1.93      1.93      5.17      0.03         0.01
  C21                         3.34      3.62      5.61      0.46         0.01
  C22                         0.01      0.01      3.55      0.01         0.01
  
  
  ***************************
  Link Pollutant Load Summary
  ***************************
  
  ----------------------------------
                                 TSS
  Link                           lbs
  ----------------------------------
  C08                        208.277
  C09                        324.576
  C10                        845.986
  C11                        893.065
  C12                        909.003
  C18                         82.754
  C19                        129.667
  C21                        135.630
  C22                         74.005
  C95-53307                  489.413
  OR34                        89.871
  OR35                       164.355
  OR36                       245.307
  OR38                       465.153
  OR39                       293.275
  OR43                        74.018
  OR44                       325.356
  OR45                      1210.238
  OR46                       892.921
  OR47                       908.731
  OR48                      1358.349
  

  Analysis begun on:  Mon Apr  1 18:27:29 2019
  Analysis ended on:  Mon Apr  1 18:27:33 2019
  Total elapsed time: 00:00:04