
  EPA STORM WATER MANAGEMENT MODEL - VERSION 5.1 (Build 5.2.0.dev4)
  --------------------------------------------------------------

  
  **********************           Volume        Volume
  Rainfall Dependent I/I        acre-feet      10^6 gal
  **********************        ---------     ---------
  Sewershed Rainfall ......       106.357        34.658
  RDII Produced ...........        14.898         4.855
  RDII Ratio ..............         0.140
  
  
  *********************************************************
  NOTE: The summary statistics displayed in this report are
  based on results found at every computational time step,  
  not just on results from each reporting time step.
  *********************************************************
  
  ****************
  Analysis Options
  ****************
  Flow Units ............... CFS
  Process Models:
    Rainfall/Runoff ........ YES
    RDII ................... YES
    Snowmelt ............... NO
    Groundwater ............ NO
    Flow Routing ........... YES
    Ponding Allowed ........ YES
    Water Quality .......... YES
  Infiltration Method ...... GREEN_AMPT
  Flow Routing Method ...... DYNWAVE
  Starting Date ............ 07/05/2014 12:00:00
  Ending Date .............. 07/10/2014 00:05:00
  Antecedent Dry Days ...... 5.0
  Report Time Step ......... 00:01:00
  Wet Time Step ............ 00:01:00
  Dry Time Step ............ 00:01:00
  Routing Time Step ........ 60.00 sec
  Variable Time Step ....... YES
  Maximum Trials ........... 8
  Number of Threads ........ 1
  Head Tolerance ........... 0.005000 ft
  
  
  **************************        Volume         Depth
  Runoff Quantity Continuity     acre-feet        inches
  **************************     ---------       -------
  Total Precipitation ......        77.674         4.526
  Evaporation Loss .........         0.000         0.000
  Infiltration Loss ........        23.195         1.351
  Surface Runoff ...........        53.865         3.139
  Final Storage ............         0.633         0.037
  Continuity Error (%) .....        -0.023
  
  
  **************************           TSS
  Runoff Quality Continuity            lbs
  **************************    ----------
  Initial Buildup ..........      3394.520
  Surface Buildup ..........      2628.436
  Wet Deposition ...........         0.000
  Sweeping Removal .........         0.000
  Infiltration Loss ........         0.000
  BMP Removal ..............         0.000
  Surface Runoff ...........      2764.432
  Remaining Buildup ........      3258.524
  Continuity Error (%) .....         0.000
  
  
  **************************        Volume        Volume
  Flow Routing Continuity        acre-feet      10^6 gal
  **************************     ---------     ---------
  Dry Weather Inflow .......         0.000         0.000
  Wet Weather Inflow .......        53.828        17.541
  Groundwater Inflow .......         0.000         0.000
  RDII Inflow ..............        14.898         4.855
  External Inflow ..........         0.000         0.000
  External Outflow .........        34.400        11.210
  Flooding Loss ............        11.172         3.641
  Evaporation Loss .........         0.000         0.000
  Exfiltration Loss ........         0.000         0.000
  Initial Stored Volume ....         0.000         0.000
  Final Stored Volume ......        23.400         7.625
  Continuity Error (%) .....        -0.358
  
  
  **************************           TSS
  Quality Routing Continuity           lbs
  **************************    ----------
  Dry Weather Inflow .......         0.000
  Wet Weather Inflow .......      2762.268
  Groundwater Inflow .......         0.000
  RDII Inflow ..............         0.000
  External Inflow ..........         0.000
  External Outflow .........      1316.496
  Flooding Loss ............       597.211
  Exfiltration Loss ........         0.000
  Mass Reacted .............         0.000
  Initial Stored Mass ......         0.000
  Final Stored Mass ........       855.612
  Continuity Error (%) .....        -0.255
  
  
  *************************
  Highest Continuity Errors
  *************************
  Node J23 (-2.55%)
  Node 93-49921 (1.14%)
  
  
  ***************************
  Time-Step Critical Elements
  ***************************
  Link C11 (73.55%)
  Link C09 (18.61%)
  Link C22 (6.54%)
  
  
  ********************************
  Highest Flow Instability Indexes
  ********************************
  Link OR47 (15)
  Link C12 (14)
  Link OR43 (2)
  Link OR34 (2)
  Link C22 (2)
  
  
  *************************
  Routing Time Step Summary
  *************************
  Minimum Time Step           :     2.06 sec
  Average Time Step           :    15.09 sec
  Maximum Time Step           :    60.00 sec
  Percent in Steady State     :     0.00
  Average Iterations per Step :     2.05
  Percent Not Converging      :     0.62
  
  
  ***************************
  Subcatchment Runoff Summary
  ***************************
  
  --------------------------------------------------------------------------------------------------------
                            Total      Total      Total      Total      Total       Total     Peak  Runoff
                           Precip      Runon       Evap      Infil     Runoff      Runoff   Runoff   Coeff
  Subcatchment                 in         in         in         in         in    10^6 gal      CFS
  --------------------------------------------------------------------------------------------------------
  102                        4.53       0.00       0.00       1.57       2.92        0.23    15.22   0.645
  103                        4.53       0.00       0.00       2.04       2.46        0.38    29.53   0.544
  115                        4.53       0.00       0.00       2.17       2.34        0.65    34.86   0.516
  120                        4.53       0.00       0.00       1.66       2.83        0.51    36.23   0.626
  1472                       4.53       0.00       0.00       1.26       3.23        0.28    18.22   0.714
  1497                       4.53       0.00       0.00       0.48       3.99        1.62    88.21   0.883
  1499                       4.53       0.00       0.00       0.17       4.30        2.95   148.17   0.951
  1503                       4.53       0.00       0.00       0.88       3.60        0.13     7.72   0.795
  1506                       4.53       0.00       0.00       1.75       2.75        0.76    54.22   0.607
  1570                       4.53       0.00       0.00       2.35       2.16        0.46    38.36   0.477
  1648                       4.53       0.00       0.00       1.97       2.53        0.19    13.89   0.559
  1736                       4.53       0.00       0.00       1.61       2.89        1.18    81.50   0.638
  1780                       4.53       0.00       0.00       2.15       2.35        0.15    11.62   0.519
  54                         4.53       0.00       0.00       0.45       4.02        3.97   212.36   0.889
  57                         4.53       0.00       0.00       2.61       1.90        0.52    29.43   0.419
  62                         4.53       0.00       0.00       2.18       2.32        0.67    55.46   0.513
  93                         4.53       0.00       0.00       1.60       2.89        0.65    45.71   0.639
  94                         4.53       0.00       0.00       2.15       2.35        0.82    67.67   0.520
  97                         4.53       0.00       0.00       1.79       2.71        1.44   105.94   0.598
  
  
  ****************************
  Subcatchment Washoff Summary
  ****************************
  
  ----------------------------------
                                 TSS
  Subcatchment                   lbs
  ----------------------------------
  102                         37.520
  103                         70.325
  115                        126.092
  120                         87.584
  1472                        43.840
  1497                       220.736
  1499                       383.310
  1503                        19.003
  1506                       131.479
  1570                        92.754
  1648                        34.297
  1736                       197.400
  1780                        28.580
  54                         537.764
  57                         106.181
  62                         128.967
  93                         108.267
  94                         156.759
  97                         253.575
  ----------------------------------
  System                    2764.432
  
  
  ******************
  Node Depth Summary
  ******************
  
  ---------------------------------------------------------------------------------
                                 Average  Maximum  Maximum  Time of Max    Reported
                                   Depth    Depth      HGL   Occurrence   Max Depth
  Node                 Type         Feet     Feet     Feet  days hr:min        Feet
  ---------------------------------------------------------------------------------
  J13                  JUNCTION     0.06     1.00   889.17     0  12:05        1.00
  J14                  JUNCTION     0.10     1.00   882.00     0  11:53        1.00
  J15                  JUNCTION     0.20     1.00   872.00     0  10:43        1.00
  J18                  JUNCTION     0.29     1.00   875.22     0  11:52        1.00
  J19                  JUNCTION     0.15     0.23   858.51     1  04:24        0.23
  J22                  JUNCTION     0.04     0.34   879.34     0  12:26        0.34
  J23                  JUNCTION     0.10     0.28   868.28     0  13:03        0.28
  J24                  JUNCTION     0.49     0.53   846.53     2  03:45        0.53
  J25                  JUNCTION     0.29     0.33   832.83     4  04:48        0.33
  J26                  JUNCTION     0.43     0.69   822.19     0  12:08        0.69
  ZOF1                 OUTFALL      0.00     0.00   810.00     0  00:00        0.00
  93-49743             STORAGE      1.60    12.19   886.41     0  12:46       12.19
  93-49868             STORAGE      0.27     5.64   893.81     0  12:23        5.64
  93-49919             STORAGE      1.00     4.41   872.41     0  13:03        4.41
  93-49921             STORAGE      7.74     9.38   855.38     2  03:44        9.38
  93-50074             STORAGE      4.06     9.49   867.77     1  04:23        9.49
  93-50076             STORAGE      2.30     3.10   835.60     4  04:48        3.10
  93-50077             STORAGE      1.46     4.27   814.27     0  16:50        4.27
  93-50081             STORAGE      0.85     2.22   823.72     0  12:07        2.22
  93-50225             STORAGE      0.67     5.90   876.90     0  16:19        5.90
  93-90357             STORAGE      0.39     7.15   886.15     0  12:26        7.15
  93-90358             STORAGE      0.35     5.93   886.93     0  12:20        5.93
  
  
  *******************
  Node Inflow Summary
  *******************
  
  -------------------------------------------------------------------------------------------------
                                  Maximum  Maximum                  Lateral       Total        Flow
                                  Lateral    Total  Time of Max      Inflow      Inflow     Balance
                                   Inflow   Inflow   Occurrence      Volume      Volume       Error
  Node                 Type           CFS      CFS  days hr:min    10^6 gal    10^6 gal     Percent
  -------------------------------------------------------------------------------------------------
  J13                  JUNCTION      0.00     5.44     0  12:23           0       0.816       0.007
  J14                  JUNCTION      0.00     8.76     0  12:20           0        1.54      -0.006
  J15                  JUNCTION      0.00     7.62     0  14:04           0        2.24      -0.005
  J18                  JUNCTION      0.00     9.54     0  12:46           0         4.3      -0.005
  J19                  JUNCTION      0.00     3.35     1  04:23           0        5.09      -0.062
  J22                  JUNCTION      0.00     3.53     0  12:26           0       0.685      -0.069
  J23                  JUNCTION      0.00     2.67     0  13:03           0         2.2      -2.483
  J24                  JUNCTION      0.00     3.06     2  03:44           0        7.58       0.015
  J25                  JUNCTION      0.00     2.67     4  04:48           0        6.02       0.003
  J26                  JUNCTION      0.00     4.57     0  12:06           0        6.14       0.004
  ZOF1                 OUTFALL       0.00     7.53     0  16:50           0        11.2       0.000
  93-49743             STORAGE     178.68   178.68     0  12:00         4.3         4.3       0.003
  93-49868             STORAGE      67.67    67.67     0  12:00       0.816       0.816      -0.004
  93-49919             STORAGE     124.16   125.38     0  12:00        1.73        2.28      -0.124
  93-49921             STORAGE     204.30   209.14     0  12:00        5.48        12.8       1.154
  93-50074             STORAGE     133.92   138.53     0  12:00        2.27        5.09      -0.139
  93-50076             STORAGE      29.43    31.14     0  12:00       0.522         8.1       0.094
  93-50077             STORAGE     212.86   216.77     0  12:00        5.35        11.5       0.008
  93-50081             STORAGE       7.72     8.68     0  12:00       0.131        6.15       0.023
  93-50225             STORAGE      29.53    37.14     0  12:00       0.375        2.15      -0.117
  93-90357             STORAGE      53.58    53.58     0  12:00       0.685       0.685      -0.005
  93-90358             STORAGE      54.22    58.73     0  12:00       0.756        1.54      -0.007
  
  
  **********************
  Node Surcharge Summary
  **********************
  
  Surcharging occurs when water rises above the top of the highest conduit.
  ---------------------------------------------------------------------
                                               Max. Height   Min. Depth
                                   Hours       Above Crown    Below Rim
  Node                 Type      Surcharged           Feet         Feet
  ---------------------------------------------------------------------
  J13                  JUNCTION        1.61          0.000        0.000
  J14                  JUNCTION        5.32          0.000        0.000
  J15                  JUNCTION       12.08          0.000        0.000
  J18                  JUNCTION       15.63          0.000        0.000
  
  
  *********************
  Node Flooding Summary
  *********************
  
  Flooding refers to all water that overflows a node, whether it ponds or not.
  --------------------------------------------------------------------------
                                                             Total   Maximum
                                 Maximum   Time of Max       Flood    Ponded
                        Hours       Rate    Occurrence      Volume     Depth
  Node                 Flooded       CFS   days hr:min    10^6 gal      Feet
  --------------------------------------------------------------------------
  J13                     1.61      1.21      0  12:21       0.032     0.000
  J14                     5.32      4.32      0  12:26       0.445     0.000
  J15                    12.08      7.62      0  14:04       1.685     0.000
  J18                    15.63      5.30      0  13:00       1.478     0.000
  
  
  **********************
  Storage Volume Summary
  **********************
  
  --------------------------------------------------------------------------------------------------
                         Average     Avg  Evap Exfil       Maximum     Max    Time of Max    Maximum
                          Volume    Pcnt  Pcnt  Pcnt        Volume    Pcnt     Occurrence    Outflow
  Storage Unit          1000 ft3    Full  Loss  Loss      1000 ft3    Full    days hr:min        CFS
  --------------------------------------------------------------------------------------------------
  93-49743                17.809       6     0     0       191.516      70       0  12:46       9.54
  93-49868                 1.671       1     0     0        55.081      45       0  12:23       5.44
  93-49919                36.274       8     0     0       182.146      40       0  13:03       3.53
  93-49921               832.936      74     0     0      1039.283      93       2  03:44       3.06
  93-50074               131.508      19     0     0       363.572      53       1  04:23       3.35
  93-50076               202.401      19     0     0       278.605      26       4  04:48       2.67
  93-50077               113.225      11     0     0       355.047      34       0  16:50       7.53
  93-50081                 0.873       3     0     0         3.753      13       0  12:07       4.57
  93-50225                 6.030       1     0     0        63.250      11       0  16:19       6.93
  93-90357                 2.077       3     0     0        48.409      65       0  12:26       3.53
  93-90358                 1.751       1     0     0        46.423      33       0  12:20       8.76
  
  
  ***********************
  Outfall Loading Summary
  ***********************
  
  -------------------------------------------------------------------------
                         Flow       Avg       Max       Total         Total
                         Freq      Flow      Flow      Volume           TSS
  Outfall Node           Pcnt       CFS       CFS    10^6 gal           lbs
  -------------------------------------------------------------------------
  ZOF1                  99.88      4.01      7.53      11.209      1316.570
  -------------------------------------------------------------------------
  System                99.88      4.01      7.53      11.209      1316.570
  
  
  ********************
  Link Flow Summary
  ********************
  
  -----------------------------------------------------------------------------
                                 Maximum  Time of Max   Maximum    Max/    Max/
                                  |Flow|   Occurrence   |Veloc|    Full    Full
  Link                 Type          CFS  days hr:min    ft/sec    Flow   Depth
  -----------------------------------------------------------------------------
  C08                  CONDUIT      5.30     0  11:51      6.88    0.96    1.00
  C09                  CONDUIT     17.85     0  03:10    >50.00    1.11    0.64
  C10                  CONDUIT      3.06     2  03:45      6.60    0.55    0.76
  C11                  CONDUIT      2.67     4  04:48      5.09    0.23    0.66
  C12                  CONDUIT      4.55     0  12:07      6.55    0.82    0.85
  C18                  CONDUIT      5.07     0  13:43      6.70    0.67    1.00
  C19                  CONDUIT      5.57     0  11:52      7.24    0.95    1.00
  C21                  CONDUIT      2.23     0  10:34      2.97    0.96    1.00
  C22                  CONDUIT      3.53     0  12:26    >50.00    0.13    0.62
  C95-53307            CONDUIT      3.35     1  04:24     18.71    0.00    0.52
  OR34                 ORIFICE      5.44     0  12:23                          
  OR35                 ORIFICE      8.76     0  12:20                          
  OR36                 ORIFICE      6.93     0  16:19                          
  OR38                 ORIFICE      3.35     1  04:23                          
  OR39                 ORIFICE      9.54     0  12:46                          
  OR43                 ORIFICE      3.53     0  12:26                          
  OR44                 ORIFICE      2.67     0  13:03                          
  OR45                 ORIFICE      3.06     2  03:44                          
  OR46                 ORIFICE      2.67     4  04:48                          
  OR47                 ORIFICE      4.57     0  12:06                          
  OR48                 ORIFICE      7.53     0  16:50                          
  
  
  ***************************
  Flow Classification Summary
  ***************************
  
  -------------------------------------------------------------------------------------
                      Adjusted    ---------- Fraction of Time in Flow Class ---------- 
                       /Actual         Up    Down  Sub   Sup   Up    Down  Norm  Inlet 
  Conduit               Length    Dry  Dry   Dry   Crit  Crit  Crit  Crit  Ltd   Ctrl  
  -------------------------------------------------------------------------------------
  C08                     1.00   0.00  0.00  0.00  0.76  0.24  0.00  0.00  0.81  0.00
  C09                     1.00   0.00  0.01  0.00  0.81  0.18  0.00  0.00  0.97  0.00
  C10                     1.00   0.00  0.00  0.00  0.94  0.06  0.00  0.00  0.90  0.00
  C11                     1.00   0.00  0.00  0.00  0.04  0.96  0.00  0.00  0.99  0.00
  C12                     1.00   0.00  0.00  0.00  0.45  0.55  0.00  0.00  0.98  0.00
  C18                     1.00   0.00  0.00  0.00  0.96  0.04  0.00  0.00  0.39  0.00
  C19                     1.00   0.00  0.32  0.00  0.66  0.01  0.00  0.00  0.93  0.00
  C21                     1.00   0.00  0.00  0.00  0.99  0.01  0.00  0.00  0.80  0.00
  C22                     1.00   0.00  0.48  0.00  0.52  0.00  0.00  0.00  0.99  0.00
  C95-53307               1.00   0.00  0.00  0.00  0.99  0.00  0.00  0.00  0.98  0.00
  
  
  *************************
  Conduit Surcharge Summary
  *************************
  
  ----------------------------------------------------------------------------
                                                           Hours        Hours 
                         --------- Hours Full --------   Above Full   Capacity
  Conduit                Both Ends  Upstream  Dnstream   Normal Flow   Limited
  ----------------------------------------------------------------------------
  C08                        15.63     15.63     70.70      0.01         0.01
  C09                         0.01      0.01     99.73      0.03         0.01
  C10                         0.01      0.01     94.11      0.01         0.01
  C11                         0.01      0.01     19.51      0.01         0.01
  C12                         0.01      0.01     39.53      0.01         0.01
  C18                         1.61      1.61      6.43      0.01         0.01
  C19                         5.32      5.32     15.62      0.01         0.01
  C21                        12.08     12.08     34.62      0.01         0.01
  C22                         0.01      0.01     11.41      0.01         0.01
  C95-53307                   0.01      0.01     89.03      0.01         0.01
  
  
  ***************************
  Link Pollutant Load Summary
  ***************************
  
  ----------------------------------
                                 TSS
  Link                           lbs
  ----------------------------------
  C08                        283.999
  C09                        383.655
  C10                        928.394
  C11                        793.959
  C12                        811.962
  C18                        150.255
  C19                        196.461
  C21                        115.190
  C22                        130.383
  C95-53307                  632.145
  OR34                       156.694
  OR35                       281.538
  OR36                       396.921
  OR38                       611.307
  OR39                       473.829
  OR43                       130.211
  OR44                       379.234
  OR45                       928.293
  OR46                       793.929
  OR47                       811.815
  OR48                      1316.570
  

  Analysis begun on:  Mon Apr  1 18:20:32 2019
  Analysis ended on:  Mon Apr  1 18:20:37 2019
  Total elapsed time: 00:00:05