
  EPA STORM WATER MANAGEMENT MODEL - VERSION 5.1 (Build 5.2.0.dev4)
  --------------------------------------------------------------

  
  **********************           Volume        Volume
  Rainfall Dependent I/I        acre-feet      10^6 gal
  **********************        ---------     ---------
  Sewershed Rainfall ......        75.620        24.642
  RDII Produced ...........        10.288         3.352
  RDII Ratio ..............         0.136
  
  
  *********************************************************
  NOTE: The summary statistics displayed in this report are
  based on results found at every computational time step,  
  not just on results from each reporting time step.
  *********************************************************
  
  ****************
  Analysis Options
  ****************
  Flow Units ............... CFS
  Process Models:
    Rainfall/Runoff ........ YES
    RDII ................... YES
    Snowmelt ............... NO
    Groundwater ............ NO
    Flow Routing ........... YES
    Ponding Allowed ........ YES
    Water Quality .......... YES
  Infiltration Method ...... GREEN_AMPT
  Flow Routing Method ...... DYNWAVE
  Starting Date ............ 07/05/2014 12:00:00
  Ending Date .............. 07/10/2014 00:05:00
  Antecedent Dry Days ...... 5.0
  Report Time Step ......... 00:01:00
  Wet Time Step ............ 00:01:00
  Dry Time Step ............ 00:01:00
  Routing Time Step ........ 60.00 sec
  Variable Time Step ....... YES
  Maximum Trials ........... 8
  Number of Threads ........ 1
  Head Tolerance ........... 0.005000 ft
  
  
  **************************        Volume         Depth
  Runoff Quantity Continuity     acre-feet        inches
  **************************     ---------       -------
  Total Precipitation ......        55.227         3.218
  Evaporation Loss .........         0.000         0.000
  Infiltration Loss ........        18.068         1.053
  Surface Runoff ...........        36.538         2.129
  Final Storage ............         0.633         0.037
  Continuity Error (%) .....        -0.022
  
  
  **************************           TSS
  Runoff Quality Continuity            lbs
  **************************    ----------
  Initial Buildup ..........      3394.520
  Surface Buildup ..........      2155.761
  Wet Deposition ...........         0.000
  Sweeping Removal .........         0.000
  Infiltration Loss ........         0.000
  BMP Removal ..............         0.000
  Surface Runoff ...........      2206.269
  Remaining Buildup ........      3344.012
  Continuity Error (%) .....         0.000
  
  
  **************************        Volume        Volume
  Flow Routing Continuity        acre-feet      10^6 gal
  **************************     ---------     ---------
  Dry Weather Inflow .......         0.000         0.000
  Wet Weather Inflow .......        36.497        11.893
  Groundwater Inflow .......         0.000         0.000
  RDII Inflow ..............        10.288         3.352
  External Inflow ..........         0.000         0.000
  External Outflow .........        27.238         8.876
  Flooding Loss ............         4.867         1.586
  Evaporation Loss .........         0.000         0.000
  Exfiltration Loss ........         0.000         0.000
  Initial Stored Volume ....         0.000         0.000
  Final Stored Volume ......        14.958         4.874
  Continuity Error (%) .....        -0.595
  
  
  **************************           TSS
  Quality Routing Continuity           lbs
  **************************    ----------
  Dry Weather Inflow .......         0.000
  Wet Weather Inflow .......      2203.522
  Groundwater Inflow .......         0.000
  RDII Inflow ..............         0.000
  External Inflow ..........         0.000
  External Outflow .........      1255.611
  Flooding Loss ............       304.676
  Exfiltration Loss ........         0.000
  Mass Reacted .............         0.000
  Initial Stored Mass ......         0.000
  Final Stored Mass ........       656.971
  Continuity Error (%) .....        -0.623
  
  
  *************************
  Highest Continuity Errors
  *************************
  Node J23 (-4.43%)
  Node 93-49921 (1.16%)
  
  
  ***************************
  Time-Step Critical Elements
  ***************************
  Link C11 (73.92%)
  Link C09 (19.72%)
  Link C22 (4.58%)
  
  
  ********************************
  Highest Flow Instability Indexes
  ********************************
  Link OR47 (17)
  Link C12 (16)
  Link OR43 (3)
  Link C22 (3)
  Link OR34 (3)
  
  
  *************************
  Routing Time Step Summary
  *************************
  Minimum Time Step           :     5.67 sec
  Average Time Step           :    16.29 sec
  Maximum Time Step           :    60.00 sec
  Percent in Steady State     :    -0.00
  Average Iterations per Step :     2.05
  Percent Not Converging      :     0.59
  
  
  ***************************
  Subcatchment Runoff Summary
  ***************************
  
  --------------------------------------------------------------------------------------------------------
                            Total      Total      Total      Total      Total       Total     Peak  Runoff
                           Precip      Runon       Evap      Infil     Runoff      Runoff   Runoff   Coeff
  Subcatchment                 in         in         in         in         in    10^6 gal      CFS
  --------------------------------------------------------------------------------------------------------
  102                        3.22       0.00       0.00       1.25       1.93        0.15     9.29   0.600
  103                        3.22       0.00       0.00       1.58       1.62        0.25    18.56   0.502
  115                        3.22       0.00       0.00       1.69       1.50        0.42    21.16   0.467
  120                        3.22       0.00       0.00       1.28       1.90        0.35    23.31   0.591
  1472                       3.22       0.00       0.00       0.97       2.21        0.19    12.09   0.687
  1497                       3.22       0.00       0.00       0.37       2.80        1.14    60.79   0.869
  1499                       3.22       0.00       0.00       0.13       3.04        2.08   102.66   0.943
  1503                       3.22       0.00       0.00       0.68       2.49        0.09     5.21   0.775
  1506                       3.22       0.00       0.00       1.39       1.80        0.49    32.69   0.558
  1570                       3.22       0.00       0.00       1.82       1.38        0.29    23.11   0.428
  1648                       3.22       0.00       0.00       1.57       1.62        0.12     8.08   0.504
  1736                       3.22       0.00       0.00       1.28       1.91        0.78    50.01   0.593
  1780                       3.22       0.00       0.00       1.71       1.48        0.09     6.57   0.460
  54                         3.22       0.00       0.00       0.35       2.82        2.78   145.86   0.876
  57                         3.22       0.00       0.00       2.05       1.15        0.32    16.44   0.356
  62                         3.22       0.00       0.00       1.69       1.51        0.43    34.75   0.469
  93                         3.22       0.00       0.00       1.24       1.95        0.43    29.83   0.606
  94                         3.22       0.00       0.00       1.66       1.54        0.53    42.99   0.477
  97                         3.22       0.00       0.00       1.38       1.81        0.96    67.68   0.562
  
  
  ****************************
  Subcatchment Washoff Summary
  ****************************
  
  ----------------------------------
                                 TSS
  Subcatchment                   lbs
  ----------------------------------
  102                         30.304
  103                         50.073
  115                         85.465
  120                         70.304
  1472                        38.289
  1497                       195.178
  1499                       337.610
  1503                        16.888
  1506                       100.623
  1570                        59.795
  1648                        24.289
  1736                       158.081
  1780                        19.054
  54                         475.319
  57                          64.100
  62                          88.101
  93                          88.459
  94                         108.331
  97                         196.006
  ----------------------------------
  System                    2206.269
  
  
  ******************
  Node Depth Summary
  ******************
  
  ---------------------------------------------------------------------------------
                                 Average  Maximum  Maximum  Time of Max    Reported
                                   Depth    Depth      HGL   Occurrence   Max Depth
  Node                 Type         Feet     Feet     Feet  days hr:min        Feet
  ---------------------------------------------------------------------------------
  J13                  JUNCTION     0.04     0.65   888.82     0  12:19        0.65
  J14                  JUNCTION     0.08     1.00   882.00     0  11:58        1.00
  J15                  JUNCTION     0.16     1.00   872.00     0  11:28        1.00
  J18                  JUNCTION     0.24     1.00   875.22     0  11:57        1.00
  J19                  JUNCTION     0.12     0.22   858.50     1  00:40        0.22
  J22                  JUNCTION     0.03     0.31   879.31     0  12:21        0.31
  J23                  JUNCTION     0.09     0.26   868.26     0  15:03        0.26
  J24                  JUNCTION     0.45     0.49   846.49     1  23:09        0.49
  J25                  JUNCTION     0.27     0.31   832.81     3  16:35        0.31
  J26                  JUNCTION     0.41     0.59   822.09     0  12:07        0.59
  ZOF1                 OUTFALL      0.00     0.00   810.00     0  00:00        0.00
  93-49743             STORAGE      0.93     8.91   883.13     0  12:36        8.91
  93-49868             STORAGE      0.16     4.10   892.27     0  12:18        4.10
  93-49919             STORAGE      0.78     3.30   871.30     0  15:03        3.30
  93-49921             STORAGE      5.82     7.38   853.38     1  23:08        7.38
  93-50074             STORAGE      2.90     8.10   866.38     1  00:38        8.10
  93-50076             STORAGE      1.83     2.42   834.92     3  16:35        2.42
  93-50077             STORAGE      0.92     2.91   812.91     0  14:33        2.91
  93-50081             STORAGE      0.74     1.56   823.06     0  12:06        1.56
  93-50225             STORAGE      0.46     5.21   876.21     0  15:33        5.21
  93-90357             STORAGE      0.21     4.86   883.86     0  12:21        4.86
  93-90358             STORAGE      0.22     4.69   885.69     0  12:18        4.69
  
  
  *******************
  Node Inflow Summary
  *******************
  
  -------------------------------------------------------------------------------------------------
                                  Maximum  Maximum                  Lateral       Total        Flow
                                  Lateral    Total  Time of Max      Inflow      Inflow     Balance
                                   Inflow   Inflow   Occurrence      Volume      Volume       Error
  Node                 Type           CFS      CFS  days hr:min    10^6 gal    10^6 gal     Percent
  -------------------------------------------------------------------------------------------------
  J13                  JUNCTION      0.00     4.70     0  12:18           0       0.532       0.038
  J14                  JUNCTION      0.00     7.58     0  12:18           0        1.03      -0.011
  J15                  JUNCTION      0.00     6.43     0  15:33           0        1.53       0.006
  J18                  JUNCTION      0.00     8.02     0  12:36           0        2.87      -0.003
  J19                  JUNCTION      0.00     3.09     1  00:39           0        3.92      -0.097
  J22                  JUNCTION      0.00     2.89     0  12:21           0       0.442       0.031
  J23                  JUNCTION      0.00     2.29     0  15:03           0        1.82      -4.241
  J24                  JUNCTION      0.00     2.70     1  23:08           0        6.47       0.015
  J25                  JUNCTION      0.00     2.33     3  16:35           0        5.26       0.003
  J26                  JUNCTION      0.00     3.65     0  12:06           0        5.34      -0.021
  ZOF1                 OUTFALL       0.00     6.22     0  14:33           0        8.88       0.000
  93-49743             STORAGE     109.46   109.46     0  12:00        2.87        2.87      -0.002
  93-49868             STORAGE      42.99    42.99     0  12:00       0.532       0.532      -0.021
  93-49919             STORAGE      79.77    81.52     0  12:00        1.16        1.81      -0.129
  93-49921             STORAGE     137.80   141.92     0  12:00         3.8        9.61       1.178
  93-50074             STORAGE      90.62    95.53     0  12:00        1.57        3.91      -0.148
  93-50076             STORAGE      16.44    17.85     0  12:00       0.315        6.79       0.087
  93-50077             STORAGE     146.15   149.20     0  12:00        3.73        9.08       0.008
  93-50081             STORAGE       5.21     5.98     0  12:00      0.0907        5.35       0.049
  93-50225             STORAGE      18.56    26.01     0  12:00       0.246        1.52      -0.167
  93-90357             STORAGE      32.40    32.40     0  12:00       0.443       0.442      -0.012
  93-90358             STORAGE      32.69    36.69     0  12:00       0.495        1.03      -0.012
  
  
  **********************
  Node Surcharge Summary
  **********************
  
  Surcharging occurs when water rises above the top of the highest conduit.
  ---------------------------------------------------------------------
                                               Max. Height   Min. Depth
                                   Hours       Above Crown    Below Rim
  Node                 Type      Surcharged           Feet         Feet
  ---------------------------------------------------------------------
  J14                  JUNCTION        3.45          0.000        0.000
  J15                  JUNCTION        8.04          0.000        0.000
  J18                  JUNCTION        9.77          0.000        0.000
  
  
  *********************
  Node Flooding Summary
  *********************
  
  Flooding refers to all water that overflows a node, whether it ponds or not.
  --------------------------------------------------------------------------
                                                             Total   Maximum
                                 Maximum   Time of Max       Flood    Ponded
                        Hours       Rate    Occurrence      Volume     Depth
  Node                 Flooded       CFS   days hr:min    10^6 gal      Feet
  --------------------------------------------------------------------------
  J14                     3.45      2.83      0  12:29       0.191     0.000
  J15                     8.04      5.30      0  15:32       0.867     0.000
  J18                     9.77      3.41      0  12:44       0.528     0.000
  
  
  **********************
  Storage Volume Summary
  **********************
  
  --------------------------------------------------------------------------------------------------
                         Average     Avg  Evap Exfil       Maximum     Max    Time of Max    Maximum
                          Volume    Pcnt  Pcnt  Pcnt        Volume    Pcnt     Occurrence    Outflow
  Storage Unit          1000 ft3    Full  Loss  Loss      1000 ft3    Full    days hr:min        CFS
  --------------------------------------------------------------------------------------------------
  93-49743                 7.424       3     0     0       111.080      40       0  12:36       8.02
  93-49868                 0.652       1     0     0        31.561      26       0  12:18       4.70
  93-49919                26.707       6     0     0       128.159      28       0  15:03       2.29
  93-49921               588.192      52     0     0       772.652      69       1  23:08       2.70
  93-50074                84.590      12     0     0       279.197      40       1  00:38       3.09
  93-50076               157.880      14     0     0       212.197      19       3  16:35       2.33
  93-50077                68.871       7     0     0       231.429      22       0  14:33       6.22
  93-50081                 0.707       3     0     0         2.176       8       0  12:06       3.65
  93-50225                 3.586       1     0     0        48.255       9       0  15:33       6.43
  93-90357                 0.884       1     0     0        27.764      37       0  12:21       2.89
  93-90358                 0.781       1     0     0        26.970      19       0  12:18       7.58
  
  
  ***********************
  Outfall Loading Summary
  ***********************
  
  -------------------------------------------------------------------------
                         Flow       Avg       Max       Total         Total
                         Freq      Flow      Flow      Volume           TSS
  Outfall Node           Pcnt       CFS       CFS    10^6 gal           lbs
  -------------------------------------------------------------------------
  ZOF1                  99.85      3.21      6.22       8.875      1255.681
  -------------------------------------------------------------------------
  System                99.85      3.21      6.22       8.875      1255.681
  
  
  ********************
  Link Flow Summary
  ********************
  
  -----------------------------------------------------------------------------
                                 Maximum  Time of Max   Maximum    Max/    Max/
                                  |Flow|   Occurrence   |Veloc|    Full    Full
  Link                 Type          CFS  days hr:min    ft/sec    Flow   Depth
  -----------------------------------------------------------------------------
  C08                  CONDUIT      5.41     0  11:57      7.03    0.98    1.00
  C09                  CONDUIT     14.13     0  03:45    >50.00    0.88    0.63
  C10                  CONDUIT      2.70     1  23:09      6.50    0.48    0.75
  C11                  CONDUIT      2.33     3  16:35      5.09    0.20    0.60
  C12                  CONDUIT      3.65     0  12:07      7.05    0.66    0.80
  C18                  CONDUIT      4.70     0  12:19      6.78    0.62    0.82
  C19                  CONDUIT      5.68     0  11:57      7.40    0.97    1.00
  C21                  CONDUIT      2.30     0  11:22      3.06    0.99    1.00
  C22                  CONDUIT      2.89     0  12:21      3.42    0.11    0.61
  C95-53307            CONDUIT      3.09     1  00:40     18.71    0.00    0.52
  OR34                 ORIFICE      4.70     0  12:18                          
  OR35                 ORIFICE      7.58     0  12:18                          
  OR36                 ORIFICE      6.43     0  15:33                          
  OR38                 ORIFICE      3.09     1  00:39                          
  OR39                 ORIFICE      8.02     0  12:36                          
  OR43                 ORIFICE      2.89     0  12:21                          
  OR44                 ORIFICE      2.29     0  15:03                          
  OR45                 ORIFICE      2.70     1  23:08                          
  OR46                 ORIFICE      2.33     3  16:35                          
  OR47                 ORIFICE      3.65     0  12:06                          
  OR48                 ORIFICE      6.22     0  14:33                          
  
  
  ***************************
  Flow Classification Summary
  ***************************
  
  -------------------------------------------------------------------------------------
                      Adjusted    ---------- Fraction of Time in Flow Class ---------- 
                       /Actual         Up    Down  Sub   Sup   Up    Down  Norm  Inlet 
  Conduit               Length    Dry  Dry   Dry   Crit  Crit  Crit  Crit  Ltd   Ctrl  
  -------------------------------------------------------------------------------------
  C08                     1.00   0.00  0.00  0.00  0.65  0.35  0.00  0.00  0.82  0.00
  C09                     1.00   0.00  0.01  0.00  0.85  0.15  0.00  0.00  0.97  0.00
  C10                     1.00   0.00  0.00  0.00  0.89  0.10  0.00  0.00  0.89  0.00
  C11                     1.00   0.00  0.00  0.00  0.04  0.96  0.00  0.00  0.99  0.00
  C12                     1.00   0.00  0.00  0.00  0.34  0.66  0.00  0.00  0.51  0.00
  C18                     1.00   0.00  0.00  0.00  0.96  0.04  0.00  0.00  0.42  0.00
  C19                     1.00   0.00  0.33  0.00  0.66  0.01  0.00  0.00  0.95  0.00
  C21                     1.00   0.00  0.00  0.00  0.99  0.01  0.00  0.00  0.83  0.00
  C22                     1.00   0.00  0.48  0.00  0.52  0.00  0.00  0.00  0.99  0.00
  C95-53307               1.00   0.00  0.00  0.00  0.99  0.01  0.00  0.00  0.98  0.00
  
  
  *************************
  Conduit Surcharge Summary
  *************************
  
  ----------------------------------------------------------------------------
                                                           Hours        Hours 
                         --------- Hours Full --------   Above Full   Capacity
  Conduit                Both Ends  Upstream  Dnstream   Normal Flow   Limited
  ----------------------------------------------------------------------------
  C08                         9.77      9.77     57.33      0.01         0.01
  C09                         0.01      0.01     98.14      0.01         0.01
  C10                         0.01      0.01     86.98      0.01         0.01
  C11                         0.01      0.01      0.42      0.01         0.01
  C12                         0.01      0.01     27.05      0.01         0.01
  C18                         0.01      0.01      4.31      0.01         0.01
  C19                         3.45      3.45     10.28      0.01         0.01
  C21                         8.04      8.04     28.89      0.01         0.01
  C22                         0.01      0.01      8.01      0.01         0.01
  C95-53307                   0.01      0.01     45.91      0.01         0.01
  
  
  ***************************
  Link Pollutant Load Summary
  ***************************
  
  ----------------------------------
                                 TSS
  Link                           lbs
  ----------------------------------
  C08                        268.269
  C09                        375.108
  C10                        939.332
  C11                        793.299
  C12                        809.211
  C18                        108.166
  C19                        170.006
  C21                        134.058
  C22                         90.005
  C95-53307                  571.454
  OR34                       108.249
  OR35                       208.727
  OR36                       310.431
  OR38                       550.700
  OR39                       356.993
  OR43                        90.002
  OR44                       367.866
  OR45                       939.316
  OR46                       793.296
  OR47                       808.923
  OR48                      1255.681
  

  Analysis begun on:  Mon Apr  1 18:20:42 2019
  Analysis ended on:  Mon Apr  1 18:20:47 2019
  Total elapsed time: 00:00:05