
  EPA STORM WATER MANAGEMENT MODEL - VERSION 5.1 (Build 5.2.0.dev4)
  --------------------------------------------------------------

  
  **********************           Volume        Volume
  Rainfall Dependent I/I        acre-feet      10^6 gal
  **********************        ---------     ---------
  Sewershed Rainfall ......        82.381        26.845
  RDII Produced ...........        11.302         3.683
  RDII Ratio ..............         0.137
  
  
  *********************************************************
  NOTE: The summary statistics displayed in this report are
  based on results found at every computational time step,  
  not just on results from each reporting time step.
  *********************************************************
  
  ****************
  Analysis Options
  ****************
  Flow Units ............... CFS
  Process Models:
    Rainfall/Runoff ........ YES
    RDII ................... YES
    Snowmelt ............... NO
    Groundwater ............ NO
    Flow Routing ........... YES
    Ponding Allowed ........ YES
    Water Quality .......... YES
  Infiltration Method ...... GREEN_AMPT
  Flow Routing Method ...... DYNWAVE
  Starting Date ............ 07/05/2014 12:00:00
  Ending Date .............. 07/10/2014 00:05:00
  Antecedent Dry Days ...... 5.0
  Report Time Step ......... 00:01:00
  Wet Time Step ............ 00:01:00
  Dry Time Step ............ 00:01:00
  Routing Time Step ........ 60.00 sec
  Variable Time Step ....... YES
  Maximum Trials ........... 8
  Number of Threads ........ 1
  Head Tolerance ........... 0.005000 ft
  
  
  **************************        Volume         Depth
  Runoff Quantity Continuity     acre-feet        inches
  **************************     ---------       -------
  Total Precipitation ......        60.164         3.506
  Evaporation Loss .........         0.000         0.000
  Infiltration Loss ........        19.118         1.114
  Surface Runoff ...........        40.427         2.356
  Final Storage ............         0.633         0.037
  Continuity Error (%) .....        -0.023
  
  
  **************************           TSS
  Runoff Quality Continuity            lbs
  **************************    ----------
  Initial Buildup ..........      3394.520
  Surface Buildup ..........      2301.751
  Wet Deposition ...........         0.000
  Sweeping Removal .........         0.000
  Infiltration Loss ........         0.000
  BMP Removal ..............         0.000
  Surface Runoff ...........      2373.354
  Remaining Buildup ........      3322.917
  Continuity Error (%) .....         0.000
  
  
  **************************        Volume        Volume
  Flow Routing Continuity        acre-feet      10^6 gal
  **************************     ---------     ---------
  Dry Weather Inflow .......         0.000         0.000
  Wet Weather Inflow .......        40.399        13.165
  Groundwater Inflow .......         0.000         0.000
  RDII Inflow ..............        11.302         3.683
  External Inflow ..........         0.000         0.000
  External Outflow .........        28.897         9.416
  Flooding Loss ............         6.151         2.004
  Evaporation Loss .........         0.000         0.000
  Exfiltration Loss ........         0.000         0.000
  Initial Stored Volume ....         0.000         0.000
  Final Stored Volume ......        16.921         5.514
  Continuity Error (%) .....        -0.517
  
  
  **************************           TSS
  Quality Routing Continuity           lbs
  **************************    ----------
  Dry Weather Inflow .......         0.000
  Wet Weather Inflow .......      2371.467
  Groundwater Inflow .......         0.000
  RDII Inflow ..............         0.000
  External Inflow ..........         0.000
  External Outflow .........      1280.148
  Flooding Loss ............       378.513
  Exfiltration Loss ........         0.000
  Mass Reacted .............         0.000
  Initial Stored Mass ......         0.000
  Final Stored Mass ........       723.930
  Continuity Error (%) .....        -0.469
  
  
  *************************
  Highest Continuity Errors
  *************************
  Node J23 (-4.01%)
  Node 93-49921 (1.24%)
  
  
  ***************************
  Time-Step Critical Elements
  ***************************
  Link C11 (73.49%)
  Link C09 (19.87%)
  Link C22 (5.02%)
  
  
  ********************************
  Highest Flow Instability Indexes
  ********************************
  Link OR47 (16)
  Link C12 (15)
  Link OR43 (3)
  Link C22 (2)
  Link OR34 (2)
  
  
  *************************
  Routing Time Step Summary
  *************************
  Minimum Time Step           :     6.19 sec
  Average Time Step           :    15.99 sec
  Maximum Time Step           :    60.00 sec
  Percent in Steady State     :    -0.00
  Average Iterations per Step :     2.05
  Percent Not Converging      :     0.61
  
  
  ***************************
  Subcatchment Runoff Summary
  ***************************
  
  --------------------------------------------------------------------------------------------------------
                            Total      Total      Total      Total      Total       Total     Peak  Runoff
                           Precip      Runon       Evap      Infil     Runoff      Runoff   Runoff   Coeff
  Subcatchment                 in         in         in         in         in    10^6 gal      CFS
  --------------------------------------------------------------------------------------------------------
  102                        3.51       0.00       0.00       1.30       2.18        0.17    10.95   0.621
  103                        3.51       0.00       0.00       1.68       1.80        0.27    21.00   0.513
  115                        3.51       0.00       0.00       1.80       1.68        0.47    24.05   0.480
  120                        3.51       0.00       0.00       1.37       2.11        0.38    26.18   0.601
  1472                       3.51       0.00       0.00       1.03       2.43        0.21    13.46   0.694
  1497                       3.51       0.00       0.00       0.39       3.06        1.24    66.85   0.873
  1499                       3.51       0.00       0.00       0.14       3.31        2.27   112.64   0.945
  1503                       3.51       0.00       0.00       0.73       2.73        0.10     5.77   0.780
  1506                       3.51       0.00       0.00       1.44       2.04        0.56    38.88   0.581
  1570                       3.51       0.00       0.00       1.94       1.54        0.33    26.44   0.441
  1648                       3.51       0.00       0.00       1.62       1.86        0.14     9.78   0.529
  1736                       3.51       0.00       0.00       1.32       2.15        0.88    58.92   0.614
  1780                       3.51       0.00       0.00       1.77       1.71        0.11     8.08   0.487
  54                         3.51       0.00       0.00       0.37       3.08        3.05   160.56   0.880
  57                         3.51       0.00       0.00       2.15       1.33        0.37    19.78   0.380
  62                         3.51       0.00       0.00       1.80       1.68        0.48    39.38   0.481
  93                         3.51       0.00       0.00       1.32       2.15        0.48    33.39   0.614
  94                         3.51       0.00       0.00       1.77       1.71        0.59    48.54   0.489
  97                         3.51       0.00       0.00       1.47       2.00        1.07    76.25   0.571
  
  
  ****************************
  Subcatchment Washoff Summary
  ****************************
  
  ----------------------------------
                                 TSS
  Subcatchment                   lbs
  ----------------------------------
  102                         33.641
  103                         55.734
  115                         95.705
  120                         77.779
  1472                        40.016
  1497                       200.785
  1499                       347.656
  1503                        17.351
  1506                       114.011
  1570                        67.045
  1648                        27.773
  1736                       176.716
  1780                        21.983
  54                         489.029
  57                          74.627
  62                          98.364
  93                          96.930
  94                         120.926
  97                         217.283
  ----------------------------------
  System                    2373.354
  
  
  ******************
  Node Depth Summary
  ******************
  
  ---------------------------------------------------------------------------------
                                 Average  Maximum  Maximum  Time of Max    Reported
                                   Depth    Depth      HGL   Occurrence   Max Depth
  Node                 Type         Feet     Feet     Feet  days hr:min        Feet
  ---------------------------------------------------------------------------------
  J13                  JUNCTION     0.05     0.73   888.90     0  12:20        0.73
  J14                  JUNCTION     0.08     1.00   882.00     0  11:56        1.00
  J15                  JUNCTION     0.17     1.00   872.00     0  11:19        1.00
  J18                  JUNCTION     0.25     1.00   875.22     0  11:56        1.00
  J19                  JUNCTION     0.13     0.22   858.50     1  01:27        0.22
  J22                  JUNCTION     0.03     0.32   879.32     0  12:22        0.32
  J23                  JUNCTION     0.09     0.26   868.26     0  14:20        0.26
  J24                  JUNCTION     0.46     0.50   846.50     2  00:30        0.50
  J25                  JUNCTION     0.28     0.31   832.81     3  19:42        0.31
  J26                  JUNCTION     0.41     0.62   822.12     0  12:07        0.62
  ZOF1                 OUTFALL      0.00     0.00   810.00     0  00:00        0.00
  93-49743             STORAGE      1.08     9.78   884.00     0  12:38        9.78
  93-49868             STORAGE      0.18     4.43   892.60     0  12:20        4.43
  93-49919             STORAGE      0.85     3.56   871.56     0  14:20        3.56
  93-49921             STORAGE      6.28     7.86   853.86     2  00:29        7.86
  93-50074             STORAGE      3.18     8.46   866.74     1  01:26        8.46
  93-50076             STORAGE      1.94     2.59   835.09     3  19:42        2.59
  93-50077             STORAGE      1.04     3.21   813.21     0  15:15        3.21
  93-50081             STORAGE      0.77     1.72   823.22     0  12:06        1.72
  93-50225             STORAGE      0.51     5.38   876.38     0  15:58        5.38
  93-90357             STORAGE      0.25     5.38   884.38     0  12:22        5.38
  93-90358             STORAGE      0.26     5.08   886.08     0  12:20        5.08
  
  
  *******************
  Node Inflow Summary
  *******************
  
  -------------------------------------------------------------------------------------------------
                                  Maximum  Maximum                  Lateral       Total        Flow
                                  Lateral    Total  Time of Max      Inflow      Inflow     Balance
                                   Inflow   Inflow   Occurrence      Volume      Volume       Error
  Node                 Type           CFS      CFS  days hr:min    10^6 gal    10^6 gal     Percent
  -------------------------------------------------------------------------------------------------
  J13                  JUNCTION      0.00     4.86     0  12:20           0       0.594       0.035
  J14                  JUNCTION      0.00     7.97     0  12:20           0        1.15      -0.010
  J15                  JUNCTION      0.00     6.56     0  15:58           0        1.67      -0.016
  J18                  JUNCTION      0.00     8.44     0  12:38           0         3.2      -0.002
  J19                  JUNCTION      0.00     3.16     1  01:26           0         4.2      -0.084
  J22                  JUNCTION      0.00     3.04     0  12:22           0       0.497       0.023
  J23                  JUNCTION      0.00     2.39     0  14:20           0        1.93      -3.852
  J24                  JUNCTION      0.00     2.79     2  00:29           0        6.75       0.016
  J25                  JUNCTION      0.00     2.42     3  19:42           0        5.46       0.003
  J26                  JUNCTION      0.00     3.88     0  12:06           0        5.55      -0.015
  ZOF1                 OUTFALL       0.00     6.53     0  15:15           0        9.42       0.000
  93-49743             STORAGE     127.39   127.39     0  12:00         3.2         3.2      -0.002
  93-49868             STORAGE      48.54    48.54     0  12:00       0.594       0.594      -0.014
  93-49919             STORAGE      89.71    91.36     0  12:00        1.28        1.93      -0.125
  93-49921             STORAGE     152.47   156.76     0  12:00        4.17        10.4       1.253
  93-50074             STORAGE     100.24   105.08     0  12:00        1.72         4.2      -0.147
  93-50076             STORAGE      19.78    21.26     0  12:00       0.367        7.12       0.089
  93-50077             STORAGE     160.89   164.15     0  12:00        4.09        9.64       0.008
  93-50081             STORAGE       5.77     6.58     0  12:00      0.0995        5.56       0.042
  93-50225             STORAGE      21.00    28.49     0  12:00       0.274        1.67      -0.137
  93-90357             STORAGE      37.40    37.40     0  12:00       0.497       0.497      -0.006
  93-90358             STORAGE      38.88    43.01     0  12:00       0.561        1.15      -0.011
  
  
  **********************
  Node Surcharge Summary
  **********************
  
  Surcharging occurs when water rises above the top of the highest conduit.
  ---------------------------------------------------------------------
                                               Max. Height   Min. Depth
                                   Hours       Above Crown    Below Rim
  Node                 Type      Surcharged           Feet         Feet
  ---------------------------------------------------------------------
  J14                  JUNCTION        3.92          0.000        0.000
  J15                  JUNCTION        8.83          0.000        0.000
  J18                  JUNCTION       11.59          0.000        0.000
  
  
  *********************
  Node Flooding Summary
  *********************
  
  Flooding refers to all water that overflows a node, whether it ponds or not.
  --------------------------------------------------------------------------
                                                             Total   Maximum
                                 Maximum   Time of Max       Flood    Ponded
                        Hours       Rate    Occurrence      Volume     Depth
  Node                 Flooded       CFS   days hr:min    10^6 gal      Feet
  --------------------------------------------------------------------------
  J14                     3.92      3.30      0  12:30       0.254     0.000
  J15                     8.83      5.64      0  15:37       1.022     0.000
  J18                    11.59      3.92      0  12:47       0.729     0.000
  
  
  **********************
  Storage Volume Summary
  **********************
  
  --------------------------------------------------------------------------------------------------
                         Average     Avg  Evap Exfil       Maximum     Max    Time of Max    Maximum
                          Volume    Pcnt  Pcnt  Pcnt        Volume    Pcnt     Occurrence    Outflow
  Storage Unit          1000 ft3    Full  Loss  Loss      1000 ft3    Full    days hr:min        CFS
  --------------------------------------------------------------------------------------------------
  93-49743                 9.515       3     0     0       130.304      47       0  12:38       8.44
  93-49868                 0.839       1     0     0        36.655      30       0  12:20       4.86
  93-49919                29.615       7     0     0       140.457      31       0  14:20       2.39
  93-49921               645.044      57     0     0       835.531      74       2  00:29       2.79
  93-50074                95.279      14     0     0       300.314      44       1  01:26       3.16
  93-50076               168.576      15     0     0       228.080      21       3  19:42       2.42
  93-50077                78.212       7     0     0       257.449      25       0  15:15       6.53
  93-50081                 0.743       3     0     0         2.510       9       0  12:06       3.88
  93-50225                 4.125       1     0     0        51.732       9       0  15:58       6.56
  93-90357                 1.118       2     0     0        32.418      44       0  12:22       3.04
  93-90358                 1.014       1     0     0        32.369      23       0  12:20       7.97
  
  
  ***********************
  Outfall Loading Summary
  ***********************
  
  -------------------------------------------------------------------------
                         Flow       Avg       Max       Total         Total
                         Freq      Flow      Flow      Volume           TSS
  Outfall Node           Pcnt       CFS       CFS    10^6 gal           lbs
  -------------------------------------------------------------------------
  ZOF1                  99.85      3.40      6.53       9.416      1280.218
  -------------------------------------------------------------------------
  System                99.85      3.40      6.53       9.416      1280.218
  
  
  ********************
  Link Flow Summary
  ********************
  
  -----------------------------------------------------------------------------
                                 Maximum  Time of Max   Maximum    Max/    Max/
                                  |Flow|   Occurrence   |Veloc|    Full    Full
  Link                 Type          CFS  days hr:min    ft/sec    Flow   Depth
  -----------------------------------------------------------------------------
  C08                  CONDUIT      5.39     0  11:55      7.00    0.97    1.00
  C09                  CONDUIT     13.66     0  03:28    >50.00    0.85    0.63
  C10                  CONDUIT      2.79     2  00:30      6.50    0.50    0.75
  C11                  CONDUIT      2.42     3  19:42      5.09    0.21    0.60
  C12                  CONDUIT      3.88     0  12:07      6.95    0.70    0.81
  C18                  CONDUIT      4.86     0  12:21      6.72    0.64    0.87
  C19                  CONDUIT      5.67     0  11:56      7.37    0.97    1.00
  C21                  CONDUIT      2.28     0  11:12      3.03    0.98    1.00
  C22                  CONDUIT      3.04     0  12:22      3.79    0.11    0.61
  C95-53307            CONDUIT      3.16     1  01:27     18.71    0.00    0.52
  OR34                 ORIFICE      4.86     0  12:20                          
  OR35                 ORIFICE      7.97     0  12:20                          
  OR36                 ORIFICE      6.56     0  15:58                          
  OR38                 ORIFICE      3.16     1  01:26                          
  OR39                 ORIFICE      8.44     0  12:38                          
  OR43                 ORIFICE      3.04     0  12:22                          
  OR44                 ORIFICE      2.39     0  14:20                          
  OR45                 ORIFICE      2.79     2  00:29                          
  OR46                 ORIFICE      2.42     3  19:42                          
  OR47                 ORIFICE      3.88     0  12:06                          
  OR48                 ORIFICE      6.53     0  15:15                          
  
  
  ***************************
  Flow Classification Summary
  ***************************
  
  -------------------------------------------------------------------------------------
                      Adjusted    ---------- Fraction of Time in Flow Class ---------- 
                       /Actual         Up    Down  Sub   Sup   Up    Down  Norm  Inlet 
  Conduit               Length    Dry  Dry   Dry   Crit  Crit  Crit  Crit  Ltd   Ctrl  
  -------------------------------------------------------------------------------------
  C08                     1.00   0.00  0.00  0.00  0.68  0.32  0.00  0.00  0.84  0.00
  C09                     1.00   0.00  0.01  0.00  0.83  0.16  0.00  0.00  0.97  0.00
  C10                     1.00   0.00  0.00  0.00  0.91  0.09  0.00  0.00  0.89  0.00
  C11                     1.00   0.00  0.00  0.00  0.04  0.96  0.00  0.00  0.99  0.00
  C12                     1.00   0.00  0.00  0.00  0.37  0.63  0.00  0.00  0.65  0.00
  C18                     1.00   0.00  0.00  0.00  0.95  0.04  0.00  0.00  0.41  0.00
  C19                     1.00   0.00  0.32  0.00  0.66  0.01  0.00  0.00  0.94  0.00
  C21                     1.00   0.00  0.00  0.00  0.99  0.01  0.00  0.00  0.82  0.00
  C22                     1.00   0.00  0.48  0.00  0.52  0.00  0.00  0.00  0.99  0.00
  C95-53307               1.00   0.00  0.00  0.00  0.99  0.01  0.00  0.00  0.98  0.00
  
  
  *************************
  Conduit Surcharge Summary
  *************************
  
  ----------------------------------------------------------------------------
                                                           Hours        Hours 
                         --------- Hours Full --------   Above Full   Capacity
  Conduit                Both Ends  Upstream  Dnstream   Normal Flow   Limited
  ----------------------------------------------------------------------------
  C08                        11.59     11.59     60.69      0.01         0.01
  C09                         0.01      0.01     98.53      0.01         0.01
  C10                         0.01      0.01     88.96      0.01         0.01
  C11                         0.01      0.01      0.50      0.01         0.01
  C12                         0.01      0.01     29.78      0.01         0.01
  C18                         0.01      0.01      4.82      0.01         0.01
  C19                         3.92      3.92     11.61      0.01         0.01
  C21                         8.83      8.83     30.62      0.01         0.01
  C22                         0.01      0.01      8.80      0.01         0.01
  C95-53307                   0.01      0.01     58.49      0.01         0.01
  
  
  ***************************
  Link Pollutant Load Summary
  ***************************
  
  ----------------------------------
                                 TSS
  Link                           lbs
  ----------------------------------
  C08                        281.696
  C09                        395.125
  C10                        954.472
  C11                        805.390
  C12                        821.737
  C18                        120.824
  C19                        183.305
  C21                        132.120
  C22                        100.635
  C95-53307                  598.994
  OR34                       120.851
  OR35                       234.782
  OR36                       340.001
  OR38                       578.254
  OR39                       399.897
  OR43                       100.636
  OR44                       388.954
  OR45                       954.450
  OR46                       805.384
  OR47                       821.487
  OR48                      1280.218
  

  Analysis begun on:  Mon Apr  1 18:20:47 2019
  Analysis ended on:  Mon Apr  1 18:20:52 2019
  Total elapsed time: 00:00:05