
  EPA STORM WATER MANAGEMENT MODEL - VERSION 5.1 (Build 5.2.0.dev4)
  --------------------------------------------------------------

  
  **********************           Volume        Volume
  Rainfall Dependent I/I        acre-feet      10^6 gal
  **********************        ---------     ---------
  Sewershed Rainfall ......        88.925        28.978
  RDII Produced ...........        12.283         4.003
  RDII Ratio ..............         0.138
  
  
  *********************************************************
  NOTE: The summary statistics displayed in this report are
  based on results found at every computational time step,  
  not just on results from each reporting time step.
  *********************************************************
  
  ****************
  Analysis Options
  ****************
  Flow Units ............... CFS
  Process Models:
    Rainfall/Runoff ........ YES
    RDII ................... YES
    Snowmelt ............... NO
    Groundwater ............ NO
    Flow Routing ........... YES
    Ponding Allowed ........ YES
    Water Quality .......... YES
  Infiltration Method ...... GREEN_AMPT
  Flow Routing Method ...... DYNWAVE
  Starting Date ............ 07/05/2014 12:00:00
  Ending Date .............. 07/10/2014 00:05:00
  Antecedent Dry Days ...... 5.0
  Report Time Step ......... 00:01:00
  Wet Time Step ............ 00:01:00
  Dry Time Step ............ 00:01:00
  Routing Time Step ........ 60.00 sec
  Variable Time Step ....... YES
  Maximum Trials ........... 8
  Number of Threads ........ 1
  Head Tolerance ........... 0.005000 ft
  
  
  **************************        Volume         Depth
  Runoff Quantity Continuity     acre-feet        inches
  **************************     ---------       -------
  Total Precipitation ......        64.944         3.784
  Evaporation Loss .........         0.000         0.000
  Infiltration Loss ........        20.252         1.180
  Surface Runoff ...........        44.074         2.568
  Final Storage ............         0.633         0.037
  Continuity Error (%) .....        -0.023
  
  
  **************************           TSS
  Runoff Quality Continuity            lbs
  **************************    ----------
  Initial Buildup ..........      3394.520
  Surface Buildup ..........      2410.566
  Wet Deposition ...........         0.000
  Sweeping Removal .........         0.000
  Infiltration Loss ........         0.000
  BMP Removal ..............         0.000
  Surface Runoff ...........      2501.556
  Remaining Buildup ........      3303.530
  Continuity Error (%) .....         0.000
  
  
  **************************        Volume        Volume
  Flow Routing Continuity        acre-feet      10^6 gal
  **************************     ---------     ---------
  Dry Weather Inflow .......         0.000         0.000
  Wet Weather Inflow .......        44.036        14.350
  Groundwater Inflow .......         0.000         0.000
  RDII Inflow ..............        12.284         4.003
  External Inflow ..........         0.000         0.000
  External Outflow .........        32.267        10.515
  Flooding Loss ............        22.935         7.474
  Evaporation Loss .........         0.000         0.000
  Exfiltration Loss ........         0.000         0.000
  Initial Stored Volume ....         0.000         0.000
  Final Stored Volume ......         1.558         0.508
  Continuity Error (%) .....        -0.780
  
  
  **************************           TSS
  Quality Routing Continuity           lbs
  **************************    ----------
  Dry Weather Inflow .......         0.000
  Wet Weather Inflow .......      2499.000
  Groundwater Inflow .......         0.000
  RDII Inflow ..............         0.000
  External Inflow ..........         0.000
  External Outflow .........      1311.565
  Flooding Loss ............      1173.268
  Exfiltration Loss ........         0.000
  Mass Reacted .............         0.000
  Initial Stored Mass ......         0.000
  Final Stored Mass ........        35.739
  Continuity Error (%) .....        -0.863
  
  
  *************************
  Highest Continuity Errors
  *************************
  Node J23 (-5.92%)
  
  
  ***************************
  Time-Step Critical Elements
  ***************************
  Link C11 (72.64%)
  Link C09 (17.17%)
  Link C22 (1.49%)
  
  
  ********************************
  Highest Flow Instability Indexes
  ********************************
  Link C11 (27)
  Link OR46 (27)
  Link OR47 (25)
  Link OR44 (9)
  Link C09 (8)
  
  
  *************************
  Routing Time Step Summary
  *************************
  Minimum Time Step           :     3.51 sec
  Average Time Step           :    15.63 sec
  Maximum Time Step           :    60.00 sec
  Percent in Steady State     :    -0.00
  Average Iterations per Step :     2.24
  Percent Not Converging      :     0.71
  
  
  ***************************
  Subcatchment Runoff Summary
  ***************************
  
  --------------------------------------------------------------------------------------------------------
                            Total      Total      Total      Total      Total       Total     Peak  Runoff
                           Precip      Runon       Evap      Infil     Runoff      Runoff   Runoff   Coeff
  Subcatchment                 in         in         in         in         in    10^6 gal      CFS
  --------------------------------------------------------------------------------------------------------
  102                        3.78       0.00       0.00       1.37       2.38        0.18    12.13   0.628
  103                        3.78       0.00       0.00       1.78       1.98        0.30    23.35   0.523
  115                        3.78       0.00       0.00       1.90       1.86        0.52    26.92   0.491
  120                        3.78       0.00       0.00       1.45       2.30        0.42    28.94   0.608
  1472                       3.78       0.00       0.00       1.10       2.65        0.23    14.77   0.700
  1497                       3.78       0.00       0.00       0.42       3.31        1.35    72.69   0.876
  1499                       3.78       0.00       0.00       0.14       3.58        2.46   122.32   0.947
  1503                       3.78       0.00       0.00       0.77       2.97        0.11     6.31   0.785
  1506                       3.78       0.00       0.00       1.53       2.23        0.61    43.13   0.589
  1570                       3.78       0.00       0.00       2.06       1.71        0.36    29.73   0.452
  1648                       3.78       0.00       0.00       1.72       2.04        0.15    10.92   0.539
  1736                       3.78       0.00       0.00       1.40       2.35        0.96    65.17   0.622
  1780                       3.78       0.00       0.00       1.88       1.88        0.12     9.05   0.497
  54                         3.78       0.00       0.00       0.39       3.34        3.30   174.73   0.883
  57                         3.78       0.00       0.00       2.28       1.48        0.41    22.31   0.392
  62                         3.78       0.00       0.00       1.91       1.86        0.53    43.85   0.491
  93                         3.78       0.00       0.00       1.40       2.35        0.53    36.79   0.622
  94                         3.78       0.00       0.00       1.88       1.89        0.65    53.84   0.499
  97                         3.78       0.00       0.00       1.56       2.19        1.17    84.43   0.580
  
  
  ****************************
  Subcatchment Washoff Summary
  ****************************
  
  ----------------------------------
                                 TSS
  Subcatchment                   lbs
  ----------------------------------
  102                         35.023
  103                         61.268
  115                        105.752
  120                         81.284
  1472                        41.177
  1497                       206.215
  1499                       357.383
  1503                        17.801
  1506                       121.410
  1570                        74.238
  1648                        30.508
  1736                       183.951
  1780                        24.221
  54                         502.306
  57                          82.995
  62                         108.483
  93                         100.878
  94                         133.177
  97                         233.484
  ----------------------------------
  System                    2501.556
  
  
  ******************
  Node Depth Summary
  ******************
  
  ---------------------------------------------------------------------------------
                                 Average  Maximum  Maximum  Time of Max    Reported
                                   Depth    Depth      HGL   Occurrence   Max Depth
  Node                 Type         Feet     Feet     Feet  days hr:min        Feet
  ---------------------------------------------------------------------------------
  J13                  JUNCTION     0.08     1.00   889.17     0  11:56        1.00
  J14                  JUNCTION     0.11     1.00   882.00     0  11:49        1.00
  J15                  JUNCTION     0.22     1.00   872.00     0  11:01        1.00
  J18                  JUNCTION     0.32     1.00   875.22     0  11:45        1.00
  J19                  JUNCTION     0.15     0.41   858.69     0  12:40        0.41
  J22                  JUNCTION     0.05     0.60   879.60     0  12:11        0.60
  J23                  JUNCTION     0.12     0.50   868.50     0  12:23        0.50
  J24                  JUNCTION     0.70     1.00   847.00     0  11:50        1.00
  J25                  JUNCTION     0.38     0.49   832.99     1  20:43        0.49
  J26                  JUNCTION     0.77     1.00   822.50     0  12:01        1.00
  ZOF1                 OUTFALL      0.00     0.00   810.00     0  00:00        0.00
  93-49743             STORAGE      1.02     9.56   883.78     0  12:24        9.56
  93-49868             STORAGE      0.19     4.27   892.44     0  12:13        4.27
  93-49919             STORAGE      0.40     2.89   870.89     0  12:23        2.89
  93-49921             STORAGE      2.86     6.69   852.69     0  21:56        6.69
  93-50074             STORAGE      0.89     5.11   863.39     0  12:39        5.11
  93-50076             STORAGE      1.12     1.58   834.08     1  20:43        1.58
  93-50077             STORAGE      4.85     6.00   816.00     1  07:17        6.00
  93-50081             STORAGE      1.53     2.52   824.02     0  12:08        2.52
  93-50225             STORAGE      0.54     5.38   876.38     0  13:05        5.38
  93-90357             STORAGE      0.15     4.57   883.57     0  12:10        4.57
  93-90358             STORAGE      0.33     5.24   886.24     0  12:13        5.24
  
  
  *******************
  Node Inflow Summary
  *******************
  
  -------------------------------------------------------------------------------------------------
                                  Maximum  Maximum                  Lateral       Total        Flow
                                  Lateral    Total  Time of Max      Inflow      Inflow     Balance
                                   Inflow   Inflow   Occurrence      Volume      Volume       Error
  Node                 Type           CFS      CFS  days hr:min    10^6 gal    10^6 gal     Percent
  -------------------------------------------------------------------------------------------------
  J13                  JUNCTION      0.00     9.43     0  12:13           0       0.654      -0.004
  J14                  JUNCTION      0.00    10.74     0  12:13           0        1.14      -0.003
  J15                  JUNCTION      0.00    10.92     0  13:05           0        1.66       0.021
  J18                  JUNCTION      0.00    15.26     0  12:24           0         3.5      -0.008
  J19                  JUNCTION      0.00    11.31     0  12:39           0        4.37      -0.055
  J22                  JUNCTION      0.00    10.39     0  12:11           0       0.548       0.017
  J23                  JUNCTION      0.00     8.05     0  12:23           0        2.19      -5.592
  J24                  JUNCTION      0.00    12.44     0  21:56           0        11.1       0.000
  J25                  JUNCTION      0.00     5.46     1  20:43           0        7.43       0.008
  J26                  JUNCTION      0.00     6.44     0  12:08           0        7.54       0.004
  ZOF1                 OUTFALL       0.00     4.79     1  07:17           0        10.5       0.000
  93-49743             STORAGE     141.44   141.44     0  12:00         3.5         3.5       0.009
  93-49868             STORAGE      53.84    53.84     0  12:00       0.654       0.654      -0.008
  93-49919             STORAGE      99.20   101.06     0  12:00         1.4        2.19      -0.077
  93-49921             STORAGE     166.69   182.80     0  12:00        4.52        11.2      -0.011
  93-50074             STORAGE     109.48   114.52     0  12:00        1.87        4.37      -0.034
  93-50076             STORAGE      22.31    27.98     0  12:00       0.408        7.52      -0.006
  93-50077             STORAGE     175.10   180.68     0  12:00        4.43        10.8      -0.016
  93-50081             STORAGE       6.31    10.14     0  12:00       0.108        7.54      -0.006
  93-50225             STORAGE      23.35    36.96     0  12:00       0.301        1.66      -0.125
  93-90357             STORAGE      41.86    41.86     0  12:00       0.548       0.548      -0.007
  93-90358             STORAGE      43.13    48.74     0  12:00       0.614        1.14      -0.038
  
  
  **********************
  Node Surcharge Summary
  **********************
  
  Surcharging occurs when water rises above the top of the highest conduit.
  ---------------------------------------------------------------------
                                               Max. Height   Min. Depth
                                   Hours       Above Crown    Below Rim
  Node                 Type      Surcharged           Feet         Feet
  ---------------------------------------------------------------------
  J13                  JUNCTION        1.70          0.000        0.000
  J14                  JUNCTION        2.76          0.000        0.000
  J15                  JUNCTION        5.17          0.000        0.000
  J18                  JUNCTION        6.28          0.000        0.000
  J24                  JUNCTION       31.80          0.000        0.000
  J26                  JUNCTION       42.29          0.000        0.000
  
  
  *********************
  Node Flooding Summary
  *********************
  
  Flooding refers to all water that overflows a node, whether it ponds or not.
  --------------------------------------------------------------------------
                                                             Total   Maximum
                                 Maximum   Time of Max       Flood    Ponded
                        Hours       Rate    Occurrence      Volume     Depth
  Node                 Flooded       CFS   days hr:min    10^6 gal      Feet
  --------------------------------------------------------------------------
  J13                     1.70      4.60      0  12:13       0.125     0.000
  J14                     2.76      6.15      0  12:17       0.333     0.000
  J15                     5.17      9.43      0  13:00       0.874     0.000
  J18                     6.28     10.48      0  12:25       0.995     0.000
  J24                    31.80      6.97      0  22:00       4.017     0.000
  J26                    42.28      1.47      0  12:09       1.129     0.000
  
  
  **********************
  Storage Volume Summary
  **********************
  
  --------------------------------------------------------------------------------------------------
                         Average     Avg  Evap Exfil       Maximum     Max    Time of Max    Maximum
                          Volume    Pcnt  Pcnt  Pcnt        Volume    Pcnt     Occurrence    Outflow
  Storage Unit          1000 ft3    Full  Loss  Loss      1000 ft3    Full    days hr:min        CFS
  --------------------------------------------------------------------------------------------------
  93-49743                 7.568       3     0     0       125.416      46       0  12:24      15.26
  93-49868                 0.730       1     0     0        34.157      28       0  12:13       9.43
  93-49919                11.745       3     0     0       107.769      24       0  12:23       8.05
  93-49921               276.356      25     0     0       684.454      61       0  21:56      12.44
  93-50074                19.423       3     0     0       135.381      20       0  12:39      11.31
  93-50076                93.868       9     0     0       133.692      12       1  20:43       5.46
  93-50077               423.283      40     0     0       535.670      51       1  07:17       4.79
  93-50081                 2.312       8     0     0         4.619      16       0  12:08       6.44
  93-50225                 4.129       1     0     0        51.653       9       0  13:05      10.92
  93-90357                 0.480       1     0     0        25.084      34       0  12:10      10.39
  93-90358                 1.206       1     0     0        34.712      25       0  12:13      10.74
  
  
  ***********************
  Outfall Loading Summary
  ***********************
  
  -------------------------------------------------------------------------
                         Flow       Avg       Max       Total         Total
                         Freq      Flow      Flow      Volume           TSS
  Outfall Node           Pcnt       CFS       CFS    10^6 gal           lbs
  -------------------------------------------------------------------------
  ZOF1                  99.86      4.18      4.79      10.514      1311.548
  -------------------------------------------------------------------------
  System                99.86      4.18      4.79      10.514      1311.548
  
  
  ********************
  Link Flow Summary
  ********************
  
  -----------------------------------------------------------------------------
                                 Maximum  Time of Max   Maximum    Max/    Max/
                                  |Flow|   Occurrence   |Veloc|    Full    Full
  Link                 Type          CFS  days hr:min    ft/sec    Flow   Depth
  -----------------------------------------------------------------------------
  C08                  CONDUIT      5.86     0  11:44      7.59    1.06    1.00
  C09                  CONDUIT     25.50     0  03:28    >50.00    1.59    0.75
  C10                  CONDUIT      5.90     1  19:42      8.79    1.06    1.00
  C11                  CONDUIT      5.46     1  20:43      8.71    0.48    0.74
  C12                  CONDUIT      5.60     0  12:00      7.28    1.01    1.00
  C18                  CONDUIT      6.69     0  11:56      8.88    0.88    1.00
  C19                  CONDUIT      5.92     0  11:49      7.68    1.01    1.00
  C21                  CONDUIT      2.55     0  11:11      3.44    1.10    1.00
  C22                  CONDUIT     10.39     0  12:11      8.82    0.38    0.71
  C95-53307            CONDUIT     11.31     0  12:40      2.62    0.01    0.53
  OR34                 ORIFICE      9.43     0  12:13                          
  OR35                 ORIFICE     10.74     0  12:13                          
  OR36                 ORIFICE     10.92     0  13:05                          
  OR38                 ORIFICE     11.31     0  12:39                          
  OR39                 ORIFICE     15.26     0  12:24                          
  OR43                 ORIFICE     10.39     0  12:11                          
  OR44                 ORIFICE      8.05     0  12:23                          
  OR45                 ORIFICE     12.44     0  21:56                          
  OR46                 ORIFICE      5.46     1  20:43                          
  OR47                 ORIFICE      6.44     0  12:08                          
  OR48                 ORIFICE      4.79     1  07:17                          
  
  
  ***************************
  Flow Classification Summary
  ***************************
  
  -------------------------------------------------------------------------------------
                      Adjusted    ---------- Fraction of Time in Flow Class ---------- 
                       /Actual         Up    Down  Sub   Sup   Up    Down  Norm  Inlet 
  Conduit               Length    Dry  Dry   Dry   Crit  Crit  Crit  Crit  Ltd   Ctrl  
  -------------------------------------------------------------------------------------
  C08                     1.00   0.00  0.00  0.00  0.17  0.83  0.00  0.00  0.35  0.00
  C09                     1.00   0.00  0.01  0.00  0.77  0.22  0.00  0.00  0.97  0.00
  C10                     1.00   0.00  0.00  0.00  0.64  0.35  0.00  0.00  0.60  0.00
  C11                     1.00   0.00  0.00  0.00  0.01  0.98  0.00  0.00  0.99  0.00
  C12                     1.00   0.00  0.00  0.00  0.96  0.04  0.00  0.00  0.55  0.00
  C18                     1.00   0.00  0.00  0.00  0.99  0.01  0.00  0.00  0.51  0.00
  C19                     1.00   0.00  0.12  0.00  0.86  0.02  0.00  0.00  0.96  0.00
  C21                     1.00   0.00  0.00  0.00  0.99  0.01  0.00  0.00  0.41  0.00
  C22                     1.00   0.00  0.30  0.00  0.67  0.03  0.00  0.00  0.99  0.00
  C95-53307               1.00   0.00  0.00  0.00  0.99  0.00  0.00  0.00  0.97  0.00
  
  
  *************************
  Conduit Surcharge Summary
  *************************
  
  ----------------------------------------------------------------------------
                                                           Hours        Hours 
                         --------- Hours Full --------   Above Full   Capacity
  Conduit                Both Ends  Upstream  Dnstream   Normal Flow   Limited
  ----------------------------------------------------------------------------
  C08                         6.28      6.28     13.93      0.06         0.01
  C09                         0.01      0.01     42.66      0.18         0.01
  C10                        31.58     31.80     42.93      1.01         0.01
  C11                         0.01      0.01     46.02      0.01         0.01
  C12                        42.28     42.28     92.05      0.02         0.01
  C18                         1.70      1.70      3.31      0.01         0.01
  C19                         2.76      2.76      7.29      0.02         0.01
  C21                         4.57      5.17      7.97      0.87         0.01
  C22                         0.01      0.01      5.04      0.01         0.01
  C95-53307                   0.01      0.01      5.66      0.01         0.01
  
  
  ***************************
  Link Pollutant Load Summary
  ***************************
  
  ----------------------------------
                                 TSS
  Link                           lbs
  ----------------------------------
  C08                        245.362
  C09                        429.117
  C10                        898.385
  C11                        978.077
  C12                        840.786
  C18                        107.725
  C19                        161.530
  C21                        154.376
  C22                        109.210
  C95-53307                  581.250
  OR34                       133.093
  OR35                       229.114
  OR36                       332.215
  OR38                       551.144
  OR39                       425.499
  OR43                       109.186
  OR44                       427.527
  OR45                      1464.162
  OR46                       977.954
  OR47                       995.785
  OR48                      1311.548
  

  Analysis begun on:  Mon Apr  1 18:27:20 2019
  Analysis ended on:  Mon Apr  1 18:27:25 2019
  Total elapsed time: 00:00:05