
  EPA STORM WATER MANAGEMENT MODEL - VERSION 5.1 (Build 5.2.0.dev4)
  --------------------------------------------------------------

  
  **********************           Volume        Volume
  Rainfall Dependent I/I        acre-feet      10^6 gal
  **********************        ---------     ---------
  Sewershed Rainfall ......        59.381        19.350
  RDII Produced ...........         7.852         2.559
  RDII Ratio ..............         0.132
  
  
  *********************************************************
  NOTE: The summary statistics displayed in this report are
  based on results found at every computational time step,  
  not just on results from each reporting time step.
  *********************************************************
  
  ****************
  Analysis Options
  ****************
  Flow Units ............... CFS
  Process Models:
    Rainfall/Runoff ........ YES
    RDII ................... YES
    Snowmelt ............... NO
    Groundwater ............ NO
    Flow Routing ........... YES
    Ponding Allowed ........ YES
    Water Quality .......... YES
  Infiltration Method ...... GREEN_AMPT
  Flow Routing Method ...... DYNWAVE
  Starting Date ............ 07/05/2014 12:00:00
  Ending Date .............. 07/10/2014 00:05:00
  Antecedent Dry Days ...... 5.0
  Report Time Step ......... 00:01:00
  Wet Time Step ............ 00:01:00
  Dry Time Step ............ 00:01:00
  Routing Time Step ........ 60.00 sec
  Variable Time Step ....... YES
  Maximum Trials ........... 8
  Number of Threads ........ 1
  Head Tolerance ........... 0.005000 ft
  
  
  **************************        Volume         Depth
  Runoff Quantity Continuity     acre-feet        inches
  **************************     ---------       -------
  Total Precipitation ......        43.367         2.527
  Evaporation Loss .........         0.000         0.000
  Infiltration Loss ........        15.749         0.918
  Surface Runoff ...........        26.994         1.573
  Final Storage ............         0.633         0.037
  Continuity Error (%) .....        -0.019
  
  
  **************************           TSS
  Runoff Quality Continuity            lbs
  **************************    ----------
  Initial Buildup ..........      3394.520
  Surface Buildup ..........      1772.179
  Wet Deposition ...........         0.000
  Sweeping Removal .........         0.000
  Infiltration Loss ........         0.000
  BMP Removal ..............         0.000
  Surface Runoff ...........      1763.467
  Remaining Buildup ........      3403.232
  Continuity Error (%) .....         0.000
  
  
  **************************        Volume        Volume
  Flow Routing Continuity        acre-feet      10^6 gal
  **************************     ---------     ---------
  Dry Weather Inflow .......         0.000         0.000
  Wet Weather Inflow .......        26.967         8.787
  Groundwater Inflow .......         0.000         0.000
  RDII Inflow ..............         7.852         2.559
  External Inflow ..........         0.000         0.000
  External Outflow .........        22.823         7.437
  Flooding Loss ............         2.263         0.737
  Evaporation Loss .........         0.000         0.000
  Exfiltration Loss ........         0.000         0.000
  Initial Stored Volume ....         0.000         0.000
  Final Stored Volume ......         9.796         3.192
  Continuity Error (%) .....        -0.181
  
  
  **************************           TSS
  Quality Routing Continuity           lbs
  **************************    ----------
  Dry Weather Inflow .......         0.000
  Wet Weather Inflow .......      1761.649
  Groundwater Inflow .......         0.000
  RDII Inflow ..............         0.000
  External Inflow ..........         0.000
  External Outflow .........      1166.488
  Flooding Loss ............       147.509
  Exfiltration Loss ........         0.000
  Mass Reacted .............         0.000
  Initial Stored Mass ......         0.000
  Final Stored Mass ........       459.680
  Continuity Error (%) .....        -0.683
  
  
  ***************************
  Time-Step Critical Elements
  ***************************
  Link C11 (76.19%)
  Link C09 (18.24%)
  Link C22 (3.34%)
  
  
  ********************************
  Highest Flow Instability Indexes
  ********************************
  Link C12 (68)
  Link OR47 (66)
  Link OR43 (3)
  Link C22 (3)
  Link OR34 (3)
  
  
  *************************
  Routing Time Step Summary
  *************************
  Minimum Time Step           :     6.54 sec
  Average Time Step           :    17.26 sec
  Maximum Time Step           :    60.00 sec
  Percent in Steady State     :     0.00
  Average Iterations per Step :     2.05
  Percent Not Converging      :     0.34
  
  
  ***************************
  Subcatchment Runoff Summary
  ***************************
  
  --------------------------------------------------------------------------------------------------------
                            Total      Total      Total      Total      Total       Total     Peak  Runoff
                           Precip      Runon       Evap      Infil     Runoff      Runoff   Runoff   Coeff
  Subcatchment                 in         in         in         in         in    10^6 gal      CFS
  --------------------------------------------------------------------------------------------------------
  102                        2.53       0.00       0.00       1.10       1.40        0.11     5.58   0.553
  103                        2.53       0.00       0.00       1.40       1.10        0.17    10.25   0.435
  115                        2.53       0.00       0.00       1.42       1.09        0.30    14.68   0.430
  120                        2.53       0.00       0.00       1.14       1.35        0.25    14.08   0.536
  1472                       2.53       0.00       0.00       0.88       1.61        0.14     7.54   0.639
  1497                       2.53       0.00       0.00       0.33       2.14        0.87    43.96   0.849
  1499                       2.53       0.00       0.00       0.10       2.37        1.62    78.76   0.936
  1503                       2.53       0.00       0.00       0.59       1.89        0.07     3.73   0.750
  1506                       2.53       0.00       0.00       1.22       1.28        0.35    18.54   0.505
  1570                       2.53       0.00       0.00       1.60       0.91        0.19    12.60   0.360
  1648                       2.53       0.00       0.00       1.37       1.13        0.08     4.39   0.447
  1736                       2.53       0.00       0.00       1.12       1.37        0.56    29.32   0.544
  1780                       2.53       0.00       0.00       1.50       1.01        0.06     3.39   0.398
  54                         2.53       0.00       0.00       0.31       2.16        2.13   104.23   0.855
  57                         2.53       0.00       0.00       1.71       0.80        0.22    10.39   0.315
  62                         2.53       0.00       0.00       1.46       1.05        0.30    21.11   0.414
  93                         2.53       0.00       0.00       1.12       1.38        0.31    17.23   0.546
  94                         2.53       0.00       0.00       1.39       1.12        0.39    29.44   0.442
  97                         2.53       0.00       0.00       1.25       1.25        0.67    37.11   0.495
  
  
  ****************************
  Subcatchment Washoff Summary
  ****************************
  
  ----------------------------------
                                 TSS
  Subcatchment                   lbs
  ----------------------------------
  102                         21.904
  103                         34.045
  115                         61.830
  120                         49.997
  1472                        28.600
  1497                       176.162
  1499                       310.422
  1503                        14.011
  1506                        71.475
  1570                        39.463
  1648                        16.888
  1736                       113.747
  1780                        12.945
  54                         429.416
  57                          44.460
  62                          61.114
  93                          62.586
  94                          78.683
  97                         135.720
  ----------------------------------
  System                    1763.467
  
  
  ******************
  Node Depth Summary
  ******************
  
  ---------------------------------------------------------------------------------
                                 Average  Maximum  Maximum  Time of Max    Reported
                                   Depth    Depth      HGL   Occurrence   Max Depth
  Node                 Type         Feet     Feet     Feet  days hr:min        Feet
  ---------------------------------------------------------------------------------
  J13                  JUNCTION     0.03     0.54   888.71     0  12:16        0.54
  J14                  JUNCTION     0.06     1.00   882.00     0  12:02        1.00
  J15                  JUNCTION     0.14     1.00   872.00     0  11:46        1.00
  J18                  JUNCTION     0.20     1.00   875.22     0  12:02        1.00
  J19                  JUNCTION     0.11     0.21   858.49     0  22:28        0.21
  J22                  JUNCTION     0.02     0.28   879.28     0  12:16        0.28
  J23                  JUNCTION     0.08     0.24   868.24     0  18:22        0.24
  J24                  JUNCTION     0.41     0.46   846.46     1  18:52        0.46
  J25                  JUNCTION     0.26     0.29   832.79     3  07:10        0.29
  J26                  JUNCTION     0.39     0.51   822.01     0  12:06        0.51
  ZOF1                 OUTFALL      0.00     0.00   810.00     0  00:00        0.00
  93-49743             STORAGE      0.60     6.72   880.94     0  12:32        6.72
  93-49868             STORAGE      0.11     3.34   891.51     0  12:16        3.34
  93-49919             STORAGE      0.57     2.64   870.64     0  18:21        2.64
  93-49921             STORAGE      4.47     5.99   851.99     1  18:51        5.99
  93-50074             STORAGE      2.13     6.83   865.11     0  22:26        6.83
  93-50076             STORAGE      1.50     1.96   834.46     3  07:10        1.96
  93-50077             STORAGE      0.65     2.17   812.17     0  13:56        2.17
  93-50081             STORAGE      0.69     1.13   822.63     0  12:06        1.13
  93-50225             STORAGE      0.33     4.61   875.61     0  14:33        4.61
  93-90357             STORAGE      0.12     3.48   882.48     0  12:16        3.48
  93-90358             STORAGE      0.15     3.73   884.73     0  12:18        3.73
  
  
  *******************
  Node Inflow Summary
  *******************
  
  -------------------------------------------------------------------------------------------------
                                  Maximum  Maximum                  Lateral       Total        Flow
                                  Lateral    Total  Time of Max      Inflow      Inflow     Balance
                                   Inflow   Inflow   Occurrence      Volume      Volume       Error
  Node                 Type           CFS      CFS  days hr:min    10^6 gal    10^6 gal     Percent
  -------------------------------------------------------------------------------------------------
  J13                  JUNCTION      0.00     4.24     0  12:16           0       0.387       0.099
  J14                  JUNCTION      0.00     6.52     0  12:18           0       0.738      -0.011
  J15                  JUNCTION      0.00     5.96     0  14:33           0        1.14      -0.036
  J18                  JUNCTION      0.00     6.82     0  12:32           0        2.11      -0.011
  J19                  JUNCTION      0.00     2.83     0  22:26           0        3.13      -0.212
  J22                  JUNCTION      0.00     2.42     0  12:16           0       0.301      -0.130
  J23                  JUNCTION      0.00     2.04     0  18:22           0        1.44       0.003
  J24                  JUNCTION      0.00     2.42     1  18:51           0        5.57       0.015
  J25                  JUNCTION      0.00     2.07     3  07:10           0        4.67       0.004
  J26                  JUNCTION      0.00     2.90     0  12:06           0        4.71      -0.542
  ZOF1                 OUTFALL       0.00     5.37     0  13:56           0        7.44       0.000
  93-49743             STORAGE      66.07    66.07     0  12:00        2.11        2.11       0.005
  93-49868             STORAGE      29.44    29.44     0  12:00       0.387       0.386      -0.057
  93-49919             STORAGE      44.65    46.62     0  12:00       0.808        1.44      -0.125
  93-49921             STORAGE     100.11   103.76     0  12:00         2.9        7.48       0.769
  93-50074             STORAGE      61.20    66.57     0  12:00        1.18        3.12      -0.142
  93-50076             STORAGE      10.39    11.60     0  12:00       0.219        5.79       0.081
  93-50077             STORAGE     104.40   106.83     0  12:00        2.86        7.59       0.033
  93-50081             STORAGE       3.73     4.21     0  12:00      0.0689        4.74       0.531
  93-50225             STORAGE      10.25    17.97     0  12:00       0.167        1.14      -0.139
  93-90357             STORAGE      18.18    18.18     0  12:00       0.302       0.301      -0.004
  93-90358             STORAGE      18.54    22.22     0  12:00       0.351       0.737      -0.024
  
  
  **********************
  Node Surcharge Summary
  **********************
  
  Surcharging occurs when water rises above the top of the highest conduit.
  ---------------------------------------------------------------------
                                               Max. Height   Min. Depth
                                   Hours       Above Crown    Below Rim
  Node                 Type      Surcharged           Feet         Feet
  ---------------------------------------------------------------------
  J14                  JUNCTION        2.29          0.000        0.000
  J15                  JUNCTION        5.99          0.000        0.000
  J18                  JUNCTION        5.20          0.000        0.000
  
  
  *********************
  Node Flooding Summary
  *********************
  
  Flooding refers to all water that overflows a node, whether it ponds or not.
  --------------------------------------------------------------------------
                                                             Total   Maximum
                                 Maximum   Time of Max       Flood    Ponded
                        Hours       Rate    Occurrence      Volume     Depth
  Node                 Flooded       CFS   days hr:min    10^6 gal      Feet
  --------------------------------------------------------------------------
  J14                     2.29      1.53      0  12:30       0.068     0.000
  J15                     5.99      4.34      0  14:35       0.505     0.000
  J18                     5.19      1.99      0  12:37       0.164     0.000
  
  
  **********************
  Storage Volume Summary
  **********************
  
  --------------------------------------------------------------------------------------------------
                         Average     Avg  Evap Exfil       Maximum     Max    Time of Max    Maximum
                          Volume    Pcnt  Pcnt  Pcnt        Volume    Pcnt     Occurrence    Outflow
  Storage Unit          1000 ft3    Full  Loss  Loss      1000 ft3    Full    days hr:min        CFS
  --------------------------------------------------------------------------------------------------
  93-49743                 3.554       1     0     0        68.874      25       0  12:32       6.82
  93-49868                 0.302       0     0     0        19.970      16       0  12:16       4.24
  93-49919                18.046       4     0     0        95.682      21       0  18:21       2.04
  93-49921               431.846      38     0     0       600.054      53       1  18:51       2.42
  93-50074                56.967       8     0     0       212.121      31       0  22:26       2.83
  93-50076               127.309      12     0     0       168.224      15       3  07:10       2.07
  93-50077                47.114       4     0     0       168.837      16       0  13:56       5.37
  93-50081                 0.631       2     0     0         1.331       5       0  12:06       2.90
  93-50225                 2.353       0     0     0        37.810       7       0  14:33       5.96
  93-90357                 0.384       1     0     0        15.558      21       0  12:16       2.42
  93-90358                 0.373       0     0     0        16.044      11       0  12:18       6.52
  
  
  ***********************
  Outfall Loading Summary
  ***********************
  
  -------------------------------------------------------------------------
                         Flow       Avg       Max       Total         Total
                         Freq      Flow      Flow      Volume           TSS
  Outfall Node           Pcnt       CFS       CFS    10^6 gal           lbs
  -------------------------------------------------------------------------
  ZOF1                  99.81      2.70      5.37       7.437      1166.551
  -------------------------------------------------------------------------
  System                99.81      2.70      5.37       7.437      1166.551
  
  
  ********************
  Link Flow Summary
  ********************
  
  -----------------------------------------------------------------------------
                                 Maximum  Time of Max   Maximum    Max/    Max/
                                  |Flow|   Occurrence   |Veloc|    Full    Full
  Link                 Type          CFS  days hr:min    ft/sec    Flow   Depth
  -----------------------------------------------------------------------------
  C08                  CONDUIT      5.48     0  12:01      7.12    0.99    1.00
  C09                  CONDUIT      2.04     0  18:22      6.40    0.13    0.62
  C10                  CONDUIT      2.42     1  18:52      6.36    0.43    0.73
  C11                  CONDUIT      2.07     3  07:11      4.88    0.18    0.59
  C12                  CONDUIT      2.90     0  12:07      7.33    0.52    0.76
  C18                  CONDUIT      4.24     0  12:16      6.55    0.56    0.77
  C19                  CONDUIT      5.76     0  12:01      7.51    0.98    1.00
  C21                  CONDUIT      2.35     0  11:43      3.11    1.01    1.00
  C22                  CONDUIT      2.42     0  12:16    >50.00    0.09    0.60
  C95-53307            CONDUIT      2.83     0  22:28     49.87    0.00    0.48
  OR34                 ORIFICE      4.24     0  12:16                          
  OR35                 ORIFICE      6.52     0  12:18                          
  OR36                 ORIFICE      5.96     0  14:33                          
  OR38                 ORIFICE      2.83     0  22:26                          
  OR39                 ORIFICE      6.82     0  12:32                          
  OR43                 ORIFICE      2.42     0  12:16                          
  OR44                 ORIFICE      2.04     0  18:22                          
  OR45                 ORIFICE      2.42     1  18:51                          
  OR46                 ORIFICE      2.07     3  07:10                          
  OR47                 ORIFICE      2.90     0  12:06                          
  OR48                 ORIFICE      5.37     0  13:56                          
  
  
  ***************************
  Flow Classification Summary
  ***************************
  
  -------------------------------------------------------------------------------------
                      Adjusted    ---------- Fraction of Time in Flow Class ---------- 
                       /Actual         Up    Down  Sub   Sup   Up    Down  Norm  Inlet 
  Conduit               Length    Dry  Dry   Dry   Crit  Crit  Crit  Crit  Ltd   Ctrl  
  -------------------------------------------------------------------------------------
  C08                     1.00   0.00  0.00  0.00  0.55  0.45  0.00  0.00  0.73  0.00
  C09                     1.00   0.00  0.00  0.00  0.97  0.03  0.00  0.00  0.98  0.00
  C10                     1.00   0.00  0.00  0.00  0.85  0.15  0.00  0.00  0.89  0.00
  C11                     1.00   0.00  0.00  0.00  0.06  0.94  0.00  0.00  0.99  0.00
  C12                     1.00   0.00  0.00  0.00  0.28  0.72  0.00  0.00  0.38  0.00
  C18                     1.00   0.00  0.00  0.00  0.97  0.03  0.00  0.00  0.44  0.00
  C19                     1.00   0.00  0.33  0.00  0.66  0.02  0.00  0.00  0.96  0.00
  C21                     1.00   0.00  0.00  0.00  0.99  0.01  0.00  0.00  0.87  0.00
  C22                     1.00   0.00  0.48  0.00  0.51  0.00  0.00  0.00  0.99  0.00
  C95-53307               1.00   0.00  0.00  0.00  0.99  0.01  0.00  0.00  0.96  0.00
  
  
  *************************
  Conduit Surcharge Summary
  *************************
  
  ----------------------------------------------------------------------------
                                                           Hours        Hours 
                         --------- Hours Full --------   Above Full   Capacity
  Conduit                Both Ends  Upstream  Dnstream   Normal Flow   Limited
  ----------------------------------------------------------------------------
  C08                         5.20      5.20     47.37      0.01         0.01
  C09                         0.01      0.01     96.82      0.01         0.01
  C10                         0.01      0.01     81.59      0.01         0.01
  C11                         0.01      0.01      0.18      0.01         0.01
  C12                         0.01      0.01     20.19      0.01         0.01
  C18                         0.01      0.01      3.11      0.01         0.01
  C19                         2.29      2.29      7.47      0.01         0.01
  C21                         5.99      5.99     23.43      0.11         0.01
  C22                         0.01      0.01      5.92      0.01         0.01
  
  
  ***************************
  Link Pollutant Load Summary
  ***************************
  
  ----------------------------------
                                 TSS
  Link                           lbs
  ----------------------------------
  C08                        225.169
  C09                        293.552
  C10                        866.709
  C11                        747.332
  C12                        760.734
  C18                         78.566
  C19                        136.268
  C21                        129.228
  C22                         61.402
  C95-53307                  483.036
  OR34                        78.636
  OR35                       150.011
  OR36                       231.899
  OR38                       463.005
  OR39                       255.278
  OR43                        61.310
  OR44                       293.564
  OR45                       866.685
  OR46                       747.327
  OR47                       756.786
  OR48                      1166.551
  

  Analysis begun on:  Mon Apr  1 18:19:45 2019
  Analysis ended on:  Mon Apr  1 18:19:50 2019
  Total elapsed time: 00:00:05