
  EPA STORM WATER MANAGEMENT MODEL - VERSION 5.1 (Build 5.2.0.dev4)
  --------------------------------------------------------------

  
  **********************           Volume        Volume
  Rainfall Dependent I/I        acre-feet      10^6 gal
  **********************        ---------     ---------
  Sewershed Rainfall ......        72.598        23.657
  RDII Produced ...........         9.834         3.205
  RDII Ratio ..............         0.135
  
  
  *********************************************************
  NOTE: The summary statistics displayed in this report are
  based on results found at every computational time step,  
  not just on results from each reporting time step.
  *********************************************************
  
  ****************
  Analysis Options
  ****************
  Flow Units ............... CFS
  Process Models:
    Rainfall/Runoff ........ YES
    RDII ................... YES
    Snowmelt ............... NO
    Groundwater ............ NO
    Flow Routing ........... YES
    Ponding Allowed ........ YES
    Water Quality .......... YES
  Infiltration Method ...... GREEN_AMPT
  Flow Routing Method ...... DYNWAVE
  Starting Date ............ 07/05/2014 12:00:00
  Ending Date .............. 07/10/2014 00:05:00
  Antecedent Dry Days ...... 5.0
  Report Time Step ......... 00:01:00
  Wet Time Step ............ 00:01:00
  Dry Time Step ............ 00:01:00
  Routing Time Step ........ 60.00 sec
  Variable Time Step ....... YES
  Maximum Trials ........... 8
  Number of Threads ........ 1
  Head Tolerance ........... 0.005000 ft
  
  
  **************************        Volume         Depth
  Runoff Quantity Continuity     acre-feet        inches
  **************************     ---------       -------
  Total Precipitation ......        53.019         3.089
  Evaporation Loss .........         0.000         0.000
  Infiltration Loss ........        17.605         1.026
  Surface Runoff ...........        34.794         2.027
  Final Storage ............         0.633         0.037
  Continuity Error (%) .....        -0.022
  
  
  **************************           TSS
  Runoff Quality Continuity            lbs
  **************************    ----------
  Initial Buildup ..........      3394.520
  Surface Buildup ..........      2088.681
  Wet Deposition ...........         0.000
  Sweeping Removal .........         0.000
  Infiltration Loss ........         0.000
  BMP Removal ..............         0.000
  Surface Runoff ...........      2129.651
  Remaining Buildup ........      3353.550
  Continuity Error (%) .....         0.000
  
  
  **************************        Volume        Volume
  Flow Routing Continuity        acre-feet      10^6 gal
  **************************     ---------     ---------
  Dry Weather Inflow .......         0.000         0.000
  Wet Weather Inflow .......        34.769        11.330
  Groundwater Inflow .......         0.000         0.000
  RDII Inflow ..............         9.835         3.205
  External Inflow ..........         0.000         0.000
  External Outflow .........        26.401         8.603
  Flooding Loss ............         4.331         1.411
  Evaporation Loss .........         0.000         0.000
  Exfiltration Loss ........         0.000         0.000
  Initial Stored Volume ....         0.000         0.000
  Final Stored Volume ......        13.962         4.550
  Continuity Error (%) .....        -0.203
  
  
  **************************           TSS
  Quality Routing Continuity           lbs
  **************************    ----------
  Dry Weather Inflow .......         0.000
  Wet Weather Inflow .......      2127.994
  Groundwater Inflow .......         0.000
  RDII Inflow ..............         0.000
  External Inflow ..........         0.000
  External Outflow .........      1243.674
  Flooding Loss ............       273.281
  Exfiltration Loss ........         0.000
  Mass Reacted .............         0.000
  Initial Stored Mass ......         0.000
  Final Stored Mass ........       621.722
  Continuity Error (%) .....        -0.502
  
  
  *************************
  Highest Continuity Errors
  *************************
  Node 93-49921 (1.02%)
  
  
  ***************************
  Time-Step Critical Elements
  ***************************
  Link C11 (74.02%)
  Link C09 (19.76%)
  Link C22 (4.39%)
  
  
  ********************************
  Highest Flow Instability Indexes
  ********************************
  Link OR47 (18)
  Link C12 (17)
  Link OR43 (3)
  Link OR34 (3)
  Link C22 (3)
  
  
  *************************
  Routing Time Step Summary
  *************************
  Minimum Time Step           :     6.91 sec
  Average Time Step           :    16.44 sec
  Maximum Time Step           :    60.00 sec
  Percent in Steady State     :     0.00
  Average Iterations per Step :     2.05
  Percent Not Converging      :     0.48
  
  
  ***************************
  Subcatchment Runoff Summary
  ***************************
  
  --------------------------------------------------------------------------------------------------------
                            Total      Total      Total      Total      Total       Total     Peak  Runoff
                           Precip      Runon       Evap      Infil     Runoff      Runoff   Runoff   Coeff
  Subcatchment                 in         in         in         in         in    10^6 gal      CFS
  --------------------------------------------------------------------------------------------------------
  102                        3.09       0.00       0.00       1.24       1.82        0.14     8.46   0.589
  103                        3.09       0.00       0.00       1.53       1.53        0.23    17.46   0.497
  115                        3.09       0.00       0.00       1.64       1.42        0.40    19.90   0.461
  120                        3.09       0.00       0.00       1.25       1.81        0.33    22.02   0.587
  1472                       3.09       0.00       0.00       0.94       2.11        0.18    11.47   0.683
  1497                       3.09       0.00       0.00       0.36       2.68        1.09    58.07   0.868
  1499                       3.09       0.00       0.00       0.12       2.91        1.99    98.20   0.942
  1503                       3.09       0.00       0.00       0.66       2.38        0.09     4.96   0.772
  1506                       3.09       0.00       0.00       1.37       1.69        0.46    29.53   0.546
  1570                       3.09       0.00       0.00       1.77       1.30        0.28    21.62   0.422
  1648                       3.09       0.00       0.00       1.55       1.52        0.11     7.22   0.491
  1736                       3.09       0.00       0.00       1.26       1.80        0.73    45.46   0.582
  1780                       3.09       0.00       0.00       1.69       1.38        0.09     5.82   0.445
  54                         3.09       0.00       0.00       0.34       2.70        2.67   139.27   0.874
  57                         3.09       0.00       0.00       2.01       1.06        0.29    14.94   0.343
  62                         3.09       0.00       0.00       1.64       1.43        0.41    32.67   0.463
  93                         3.09       0.00       0.00       1.20       1.86        0.41    28.21   0.601
  94                         3.09       0.00       0.00       1.61       1.46        0.51    40.47   0.471
  97                         3.09       0.00       0.00       1.34       1.72        0.92    63.80   0.557
  
  
  ****************************
  Subcatchment Washoff Summary
  ****************************
  
  ----------------------------------
                                 TSS
  Subcatchment                   lbs
  ----------------------------------
  102                         28.552
  103                         47.553
  115                         80.942
  120                         66.972
  1472                        37.419
  1497                       192.673
  1499                       333.118
  1503                        16.545
  1506                        94.468
  1570                        56.573
  1648                        22.684
  1736                       148.847
  1780                        17.701
  54                         469.191
  57                          59.295
  62                          83.560
  93                          84.303
  94                         102.724
  97                         186.533
  ----------------------------------
  System                    2129.651
  
  
  ******************
  Node Depth Summary
  ******************
  
  ---------------------------------------------------------------------------------
                                 Average  Maximum  Maximum  Time of Max    Reported
                                   Depth    Depth      HGL   Occurrence   Max Depth
  Node                 Type         Feet     Feet     Feet  days hr:min        Feet
  ---------------------------------------------------------------------------------
  J13                  JUNCTION     0.04     0.62   888.79     0  12:18        0.62
  J14                  JUNCTION     0.07     1.00   882.00     0  11:58        1.00
  J15                  JUNCTION     0.16     1.00   872.00     0  11:32        1.00
  J18                  JUNCTION     0.23     1.00   875.22     0  11:58        1.00
  J19                  JUNCTION     0.12     0.22   858.50     1  00:24        0.22
  J22                  JUNCTION     0.03     0.30   879.30     0  12:20        0.30
  J23                  JUNCTION     0.09     0.25   868.25     0  15:22        0.25
  J24                  JUNCTION     0.44     0.49   846.49     1  22:33        0.49
  J25                  JUNCTION     0.27     0.30   832.80     3  15:05        0.30
  J26                  JUNCTION     0.40     0.58   822.08     0  12:07        0.58
  ZOF1                 OUTFALL      0.00     0.00   810.00     0  00:00        0.00
  93-49743             STORAGE      0.87     8.50   882.72     0  12:36        8.50
  93-49868             STORAGE      0.15     3.96   892.13     0  12:18        3.96
  93-49919             STORAGE      0.75     3.20   871.20     0  15:22        3.20
  93-49921             STORAGE      5.56     7.12   853.12     1  22:32        7.12
  93-50074             STORAGE      2.77     7.91   866.19     1  00:22        7.91
  93-50076             STORAGE      1.76     2.33   834.83     3  15:05        2.33
  93-50077             STORAGE      0.87     2.77   812.77     0  14:18        2.77
  93-50081             STORAGE      0.73     1.48   822.98     0  12:06        1.48
  93-50225             STORAGE      0.43     5.12   876.12     0  15:22        5.12
  93-90357             STORAGE      0.20     4.64   883.64     0  12:20        4.64
  93-90358             STORAGE      0.21     4.49   885.49     0  12:18        4.49
  
  
  *******************
  Node Inflow Summary
  *******************
  
  -------------------------------------------------------------------------------------------------
                                  Maximum  Maximum                  Lateral       Total        Flow
                                  Lateral    Total  Time of Max      Inflow      Inflow     Balance
                                   Inflow   Inflow   Occurrence      Volume      Volume       Error
  Node                 Type           CFS      CFS  days hr:min    10^6 gal    10^6 gal     Percent
  -------------------------------------------------------------------------------------------------
  J13                  JUNCTION      0.00     4.62     0  12:18           0       0.505      -0.006
  J14                  JUNCTION      0.00     7.37     0  12:18           0       0.969      -0.014
  J15                  JUNCTION      0.00     6.36     0  15:22           0        1.46       0.005
  J18                  JUNCTION      0.00     7.81     0  12:36           0        2.73      -0.004
  J19                  JUNCTION      0.00     3.05     1  00:22           0        3.79      -0.108
  J22                  JUNCTION      0.00     2.81     0  12:20           0       0.418       0.035
  J23                  JUNCTION      0.00     2.25     0  15:22           0        1.76      -0.540
  J24                  JUNCTION      0.00     2.65     1  22:32           0         6.3       0.014
  J25                  JUNCTION      0.00     2.28     3  15:05           0        5.14       0.004
  J26                  JUNCTION      0.00     3.51     0  12:06           0        5.22      -0.028
  ZOF1                 OUTFALL       0.00     6.07     0  14:19           0         8.6       0.000
  93-49743             STORAGE     100.73   100.73     0  12:00        2.73        2.73      -0.002
  93-49868             STORAGE      40.47    40.47     0  12:00       0.505       0.505       0.014
  93-49919             STORAGE      75.28    77.06     0  12:00         1.1        1.76      -0.129
  93-49921             STORAGE     131.24   135.30     0  12:00        3.63        9.19       1.031
  93-50074             STORAGE      86.29    91.22     0  12:00         1.5        3.78      -0.148
  93-50076             STORAGE      14.94    16.30     0  12:00       0.292        6.59       0.087
  93-50077             STORAGE     139.53   142.48     0  12:00        3.58         8.8       0.008
  93-50081             STORAGE       4.96     5.68     0  12:00      0.0868        5.23       0.056
  93-50225             STORAGE      17.46    24.90     0  12:00       0.234        1.46      -0.168
  93-90357             STORAGE      30.08    30.08     0  12:00       0.419       0.418      -0.013
  93-90358             STORAGE      29.53    33.49     0  12:00       0.464       0.969      -0.003
  
  
  **********************
  Node Surcharge Summary
  **********************
  
  Surcharging occurs when water rises above the top of the highest conduit.
  ---------------------------------------------------------------------
                                               Max. Height   Min. Depth
                                   Hours       Above Crown    Below Rim
  Node                 Type      Surcharged           Feet         Feet
  ---------------------------------------------------------------------
  J14                  JUNCTION        3.23          0.000        0.000
  J15                  JUNCTION        7.68          0.000        0.000
  J18                  JUNCTION        8.93          0.000        0.000
  
  
  *********************
  Node Flooding Summary
  *********************
  
  Flooding refers to all water that overflows a node, whether it ponds or not.
  --------------------------------------------------------------------------
                                                             Total   Maximum
                                 Maximum   Time of Max       Flood    Ponded
                        Hours       Rate    Occurrence      Volume     Depth
  Node                 Flooded       CFS   days hr:min    10^6 gal      Feet
  --------------------------------------------------------------------------
  J14                     3.23      2.59      0  12:29       0.164     0.000
  J15                     7.68      5.16      0  15:22       0.801     0.000
  J18                     8.93      3.17      0  12:42       0.446     0.000
  
  
  **********************
  Storage Volume Summary
  **********************
  
  --------------------------------------------------------------------------------------------------
                         Average     Avg  Evap Exfil       Maximum     Max    Time of Max    Maximum
                          Volume    Pcnt  Pcnt  Pcnt        Volume    Pcnt     Occurrence    Outflow
  Storage Unit          1000 ft3    Full  Loss  Loss      1000 ft3    Full    days hr:min        CFS
  --------------------------------------------------------------------------------------------------
  93-49743                 6.565       2     0     0       102.508      37       0  12:36       7.81
  93-49868                 0.578       0     0     0        29.360      24       0  12:18       4.62
  93-49919                25.384       6     0     0       122.855      27       0  15:22       2.25
  93-49921               557.261      50     0     0       739.332      66       1  22:32       2.65
  93-50074                79.710      12     0     0       268.754      39       1  00:22       3.05
  93-50076               151.487      14     0     0       203.680      19       3  15:05       2.28
  93-50077                64.455       6     0     0       219.652      21       0  14:18       6.07
  93-50081                 0.687       2     0     0         2.001       7       0  12:06       3.51
  93-50225                 3.360       1     0     0        46.647       8       0  15:22       6.36
  93-90357                 0.788       1     0     0        25.712      35       0  12:20       2.81
  93-90358                 0.685       0     0     0        24.499      17       0  12:18       7.37
  
  
  ***********************
  Outfall Loading Summary
  ***********************
  
  -------------------------------------------------------------------------
                         Flow       Avg       Max       Total         Total
                         Freq      Flow      Flow      Volume           TSS
  Outfall Node           Pcnt       CFS       CFS    10^6 gal           lbs
  -------------------------------------------------------------------------
  ZOF1                  99.84      3.12      6.07       8.602      1243.742
  -------------------------------------------------------------------------
  System                99.84      3.12      6.07       8.602      1243.742
  
  
  ********************
  Link Flow Summary
  ********************
  
  -----------------------------------------------------------------------------
                                 Maximum  Time of Max   Maximum    Max/    Max/
                                  |Flow|   Occurrence   |Veloc|    Full    Full
  Link                 Type          CFS  days hr:min    ft/sec    Flow   Depth
  -----------------------------------------------------------------------------
  C08                  CONDUIT      5.42     0  11:57      7.04    0.98    1.00
  C09                  CONDUIT      2.25     0  15:22    >50.00    0.14    0.63
  C10                  CONDUIT      2.65     1  22:33      6.39    0.48    0.74
  C11                  CONDUIT      2.28     3  15:05      5.08    0.20    0.60
  C12                  CONDUIT      3.51     0  12:07      7.10    0.63    0.79
  C18                  CONDUIT      4.62     0  12:18      6.79    0.61    0.81
  C19                  CONDUIT      5.69     0  11:58      7.41    0.97    1.00
  C21                  CONDUIT      2.31     0  11:27      3.07    0.99    1.00
  C22                  CONDUIT      2.81     0  12:21      3.31    0.10    0.61
  C95-53307            CONDUIT      3.05     1  00:24     18.71    0.00    0.52
  OR34                 ORIFICE      4.62     0  12:18                          
  OR35                 ORIFICE      7.37     0  12:18                          
  OR36                 ORIFICE      6.36     0  15:22                          
  OR38                 ORIFICE      3.05     1  00:22                          
  OR39                 ORIFICE      7.81     0  12:36                          
  OR43                 ORIFICE      2.81     0  12:20                          
  OR44                 ORIFICE      2.25     0  15:22                          
  OR45                 ORIFICE      2.65     1  22:32                          
  OR46                 ORIFICE      2.28     3  15:05                          
  OR47                 ORIFICE      3.51     0  12:06                          
  OR48                 ORIFICE      6.07     0  14:19                          
  
  
  ***************************
  Flow Classification Summary
  ***************************
  
  -------------------------------------------------------------------------------------
                      Adjusted    ---------- Fraction of Time in Flow Class ---------- 
                       /Actual         Up    Down  Sub   Sup   Up    Down  Norm  Inlet 
  Conduit               Length    Dry  Dry   Dry   Crit  Crit  Crit  Crit  Ltd   Ctrl  
  -------------------------------------------------------------------------------------
  C08                     1.00   0.00  0.00  0.00  0.64  0.36  0.00  0.00  0.80  0.00
  C09                     1.00   0.00  0.00  0.00  0.85  0.14  0.00  0.00  0.98  0.00
  C10                     1.00   0.00  0.00  0.00  0.88  0.12  0.00  0.00  0.89  0.00
  C11                     1.00   0.00  0.00  0.00  0.05  0.95  0.00  0.00  0.99  0.00
  C12                     1.00   0.00  0.00  0.00  0.33  0.67  0.00  0.00  0.48  0.00
  C18                     1.00   0.00  0.00  0.00  0.96  0.04  0.00  0.00  0.42  0.00
  C19                     1.00   0.00  0.33  0.00  0.66  0.01  0.00  0.00  0.95  0.00
  C21                     1.00   0.00  0.00  0.00  0.99  0.01  0.00  0.00  0.84  0.00
  C22                     1.00   0.00  0.48  0.00  0.52  0.00  0.00  0.00  0.99  0.00
  C95-53307               1.00   0.00  0.00  0.00  0.99  0.01  0.00  0.00  0.97  0.00
  
  
  *************************
  Conduit Surcharge Summary
  *************************
  
  ----------------------------------------------------------------------------
                                                           Hours        Hours 
                         --------- Hours Full --------   Above Full   Capacity
  Conduit                Both Ends  Upstream  Dnstream   Normal Flow   Limited
  ----------------------------------------------------------------------------
  C08                         8.93      8.93     55.71      0.01         0.01
  C09                         0.01      0.01     97.63      0.01         0.01
  C10                         0.01      0.01     85.68      0.01         0.01
  C11                         0.01      0.01      0.38      0.01         0.01
  C12                         0.01      0.01     25.71      0.01         0.01
  C18                         0.01      0.01      4.06      0.01         0.01
  C19                         3.24      3.24      9.77      0.01         0.01
  C21                         7.70      7.70     28.07      0.01         0.01
  C22                         0.01      0.01      7.65      0.01         0.01
  C95-53307                   0.01      0.01     38.27      0.01         0.01
  
  
  ***************************
  Link Pollutant Load Summary
  ***************************
  
  ----------------------------------
                                 TSS
  Link                           lbs
  ----------------------------------
  C08                        260.910
  C09                        359.789
  C10                        929.665
  C11                        786.489
  C12                        802.100
  C18                        102.651
  C19                        163.840
  C21                        133.812
  C22                         85.060
  C95-53307                  557.549
  OR34                       102.635
  OR35                       197.061
  OR36                       296.821
  OR38                       536.853
  OR39                       337.085
  OR43                        85.082
  OR44                       357.864
  OR45                       929.618
  OR46                       786.481
  OR47                       801.748
  OR48                      1243.742
  

  Analysis begun on:  Mon Apr  1 18:20:05 2019
  Analysis ended on:  Mon Apr  1 18:20:10 2019
  Total elapsed time: 00:00:05