
  EPA STORM WATER MANAGEMENT MODEL - VERSION 5.1 (Build 5.2.0.dev3)
  --------------------------------------------------------------

  
  **********************           Volume        Volume
  Rainfall Dependent I/I        acre-feet      10^6 gal
  **********************        ---------     ---------
  Sewershed Rainfall ......        75.905        24.735
  RDII Produced ...........        10.331         3.366
  RDII Ratio ..............         0.136
  
  
  *********************************************************
  NOTE: The summary statistics displayed in this report are
  based on results found at every computational time step,  
  not just on results from each reporting time step.
  *********************************************************
  
  ****************
  Analysis Options
  ****************
  Flow Units ............... CFS
  Process Models:
    Rainfall/Runoff ........ YES
    RDII ................... YES
    Snowmelt ............... NO
    Groundwater ............ NO
    Flow Routing ........... YES
    Ponding Allowed ........ YES
    Water Quality .......... YES
  Infiltration Method ...... GREEN_AMPT
  Flow Routing Method ...... DYNWAVE
  Starting Date ............ 07/05/2014 12:00:00
  Ending Date .............. 09/14/2014 00:05:00
  Antecedent Dry Days ...... 5.0
  Report Time Step ......... 00:01:00
  Wet Time Step ............ 00:01:00
  Dry Time Step ............ 00:01:00
  Routing Time Step ........ 60.00 sec
  Variable Time Step ....... YES
  Maximum Trials ........... 8
  Number of Threads ........ 1
  Head Tolerance ........... 0.005000 ft
  
  
  **************************        Volume         Depth
  Runoff Quantity Continuity     acre-feet        inches
  **************************     ---------       -------
  Total Precipitation ......        55.435         3.230
  Evaporation Loss .........         0.000         0.000
  Infiltration Loss ........        16.665         0.971
  Surface Runoff ...........        38.157         2.223
  Final Storage ............         0.633         0.037
  Continuity Error (%) .....        -0.035
  
  
  **************************           TSS
  Runoff Quality Continuity            lbs
  **************************    ----------
  Initial Buildup ..........      3394.520
  Surface Buildup ..........      2479.956
  Wet Deposition ...........         0.000
  Sweeping Removal .........         0.000
  Infiltration Loss ........         0.000
  BMP Removal ..............         0.000
  Surface Runoff ...........      2302.711
  Remaining Buildup ........      3571.765
  Continuity Error (%) .....         0.000
  
  
  **************************        Volume        Volume
  Flow Routing Continuity        acre-feet      10^6 gal
  **************************     ---------     ---------
  Dry Weather Inflow .......         0.000         0.000
  Wet Weather Inflow .......        38.116        12.421
  Groundwater Inflow .......         0.000         0.000
  RDII Inflow ..............        10.332         3.367
  External Inflow ..........         0.000         0.000
  External Outflow .........        32.267        10.515
  Flooding Loss ............        14.986         4.883
  Evaporation Loss .........         0.000         0.000
  Exfiltration Loss ........         0.000         0.000
  Initial Stored Volume ....         0.000         0.000
  Final Stored Volume ......         2.844         0.927
  Continuity Error (%) .....        -3.402
  
  
  **************************           TSS
  Quality Routing Continuity           lbs
  **************************    ----------
  Dry Weather Inflow .......         0.000
  Wet Weather Inflow .......      2299.898
  Groundwater Inflow .......         0.000
  RDII Inflow ..............         0.000
  External Inflow ..........         0.000
  External Outflow .........      1406.492
  Flooding Loss ............       871.658
  Exfiltration Loss ........         0.000
  Mass Reacted .............         0.000
  Initial Stored Mass ......         0.000
  Final Stored Mass ........       114.689
  Continuity Error (%) .....        -4.041
  
  
  *************************
  Highest Continuity Errors
  *************************
  Node J23 (-55.33%)
  Node 93-49921 (1.42%)
  
  
  ***************************
  Time-Step Critical Elements
  ***************************
  Link C11 (92.52%)
  Link C09 (6.87%)
  
  
  ********************************
  Highest Flow Instability Indexes
  ********************************
  Link OR47 (11)
  Link C12 (10)
  Link C09 (3)
  Link OR44 (3)
  
  
  *************************
  Routing Time Step Summary
  *************************
  Minimum Time Step           :     4.71 sec
  Average Time Step           :    17.27 sec
  Maximum Time Step           :    60.00 sec
  Percent in Steady State     :     0.00
  Average Iterations per Step :     2.03
  Percent Not Converging      :     0.28
  
  
  ***************************
  Subcatchment Runoff Summary
  ***************************
  
  --------------------------------------------------------------------------------------------------------
                            Total      Total      Total      Total      Total       Total     Peak  Runoff
                           Precip      Runon       Evap      Infil     Runoff      Runoff   Runoff   Coeff
  Subcatchment                 in         in         in         in         in    10^6 gal      CFS
  --------------------------------------------------------------------------------------------------------
  102                        3.23       0.00       0.00       1.17       2.02        0.16    13.74   0.627
  103                        3.23       0.00       0.00       1.47       1.73        0.26    26.67   0.536
  115                        3.23       0.00       0.00       1.43       1.78        0.50    33.86   0.550
  120                        3.23       0.00       0.00       1.20       2.00        0.36    33.51   0.619
  1472                       3.23       0.00       0.00       0.92       2.27        0.20    17.23   0.704
  1497                       3.23       0.00       0.00       0.34       2.83        1.15    87.74   0.878
  1499                       3.23       0.00       0.00       0.11       3.06        2.10   149.43   0.948
  1503                       3.23       0.00       0.00       0.62       2.56        0.09     7.56   0.794
  1506                       3.23       0.00       0.00       1.30       1.90        0.52    48.42   0.588
  1570                       3.23       0.00       0.00       1.69       1.52        0.32    33.71   0.471
  1648                       3.23       0.00       0.00       1.47       1.73        0.13    12.07   0.537
  1736                       3.23       0.00       0.00       1.19       2.00        0.82    73.80   0.621
  1780                       3.23       0.00       0.00       1.61       1.60        0.10     9.88   0.495
  54                         3.23       0.00       0.00       0.33       2.85        2.82   210.91   0.883
  57                         3.23       0.00       0.00       1.98       1.23        0.34    24.80   0.382
  62                         3.23       0.00       0.00       1.55       1.66        0.48    50.68   0.515
  93                         3.23       0.00       0.00       1.17       2.03        0.45    42.37   0.628
  94                         3.23       0.00       0.00       1.41       1.80        0.62    65.60   0.558
  97                         3.23       0.00       0.00       1.31       1.89        1.01    95.96   0.585
  
  
  ****************************
  Subcatchment Washoff Summary
  ****************************
  
  ----------------------------------
                                 TSS
  Subcatchment                   lbs
  ----------------------------------
  102                         31.746
  103                         53.694
  115                        101.084
  120                         73.897
  1472                        38.779
  1497                       195.945
  1499                       338.578
  1503                        17.022
  1506                       106.337
  1570                        66.096
  1648                        25.952
  1736                       165.955
  1780                        20.590
  54                         476.895
  57                          69.012
  62                          97.157
  93                          92.049
  94                         127.127
  97                         204.795
  ----------------------------------
  System                    2302.711
  
  
  ******************
  Node Depth Summary
  ******************
  
  ---------------------------------------------------------------------------------
                                 Average  Maximum  Maximum  Time of Max    Reported
                                   Depth    Depth      HGL   Occurrence   Max Depth
  Node                 Type         Feet     Feet     Feet  days hr:min        Feet
  ---------------------------------------------------------------------------------
  J13                  JUNCTION     0.03     1.00   889.17     0  02:50        1.00
  J14                  JUNCTION     0.05     1.00   882.00     0  02:47        1.00
  J15                  JUNCTION     0.09     1.00   872.00     0  02:01        1.00
  J18                  JUNCTION     0.15     1.00   875.22     0  02:42        1.00
  J19                  JUNCTION     0.06     0.42   858.70     0  03:43        0.42
  J22                  JUNCTION     0.02     0.62   879.62     0  03:10        0.62
  J23                  JUNCTION     0.04     0.81   868.81     0  02:59        0.81
  J24                  JUNCTION     0.38     1.00   847.00     0  03:04        1.00
  J25                  JUNCTION     0.24     0.29   832.79     2  08:20        0.29
  J26                  JUNCTION     0.36     0.56   822.06     0  03:08        0.56
  ZOF1                 OUTFALL      0.00     0.00   810.00     0  00:00        0.00
  93-49743             STORAGE      0.64    10.45   884.67     0  03:26       10.45
  93-49868             STORAGE      0.15    10.00   898.17     0  02:57       10.00
  93-49919             STORAGE      0.27    10.00   878.00     0  02:59       10.00
  93-49921             STORAGE      1.54     6.90   852.90     0  12:12        6.90
  93-50074             STORAGE      0.46     5.63   863.91     0  03:42        5.63
  93-50076             STORAGE      3.84     6.20   838.70     2  08:20        6.20
  93-50077             STORAGE      1.97     4.27   814.27     0  06:39        4.27
  93-50081             STORAGE      0.80     2.29   823.79     0  03:07        2.29
  93-50225             STORAGE      0.30     5.62   876.62     0  04:10        5.62
  93-90357             STORAGE      0.11     4.96   883.96     0  03:10        4.96
  93-90358             STORAGE      0.19     5.52   886.52     0  03:12        5.52
  
  
  *******************
  Node Inflow Summary
  *******************
  
  -------------------------------------------------------------------------------------------------
                                  Maximum  Maximum                  Lateral       Total        Flow
                                  Lateral    Total  Time of Max      Inflow      Inflow     Balance
                                   Inflow   Inflow   Occurrence      Volume      Volume       Error
  Node                 Type           CFS      CFS  days hr:min    10^6 gal    10^6 gal     Percent
  -------------------------------------------------------------------------------------------------
  J13                  JUNCTION      0.00    15.65     0  02:57           0       0.459       0.030
  J14                  JUNCTION      0.00    11.09     0  03:12           0       0.808      -0.031
  J15                  JUNCTION      0.00    13.78     0  03:17           0        1.34      -0.019
  J18                  JUNCTION      0.00    16.04     0  03:26           0        3.03      -0.011
  J19                  JUNCTION      0.00    11.91     0  03:42           0        3.49      -0.073
  J22                  JUNCTION      0.00    10.87     0  03:10           0       0.481      -0.653
  J23                  JUNCTION      0.00    15.82     0  02:59           0        1.18     -35.619
  J24                  JUNCTION      0.00     8.24     0  12:12           0        9.03      -0.001
  J25                  JUNCTION      0.00     2.02     2  08:20           0        6.82       0.002
  J26                  JUNCTION      0.00     3.32     0  03:07           0        6.91      -0.001
  ZOF1                 OUTFALL       0.00     3.72     0  06:39           0        10.5       0.000
  93-49743             STORAGE     163.22   163.22     0  03:00        3.03        3.03       0.009
  93-49868             STORAGE      65.60    65.60     0  03:00       0.625       0.624      -0.016
  93-49919             STORAGE     113.19   113.19     0  03:00         1.2        1.52       0.069
  93-49921             STORAGE     200.24   225.95     0  03:00        3.87        9.19       1.440
  93-50074             STORAGE     130.11   135.07     0  03:00         1.6        3.49      -0.050
  93-50076             STORAGE      24.80    29.69     0  03:00       0.339        7.55      -0.023
  93-50077             STORAGE     211.00   213.77     0  03:00        3.77        10.7       0.006
  93-50081             STORAGE       7.56     8.00     0  03:00      0.0932        6.92       0.012
  93-50225             STORAGE      26.67    40.58     0  03:00       0.264        1.26      -0.099
  93-90357             STORAGE      47.45    47.45     0  03:00       0.481       0.481       0.001
  93-90358             STORAGE      48.42    53.83     0  03:00       0.523       0.807      -0.098
  
  
  **********************
  Node Surcharge Summary
  **********************
  
  Surcharging occurs when water rises above the top of the highest conduit.
  ---------------------------------------------------------------------
                                               Max. Height   Min. Depth
                                   Hours       Above Crown    Below Rim
  Node                 Type      Surcharged           Feet         Feet
  ---------------------------------------------------------------------
  J13                  JUNCTION        0.89          0.000        0.000
  J14                  JUNCTION        2.44          0.000        0.000
  J15                  JUNCTION        4.89          0.000        0.000
  J18                  JUNCTION        5.99          0.000        0.000
  J24                  JUNCTION       35.31          0.000        0.000
  
  
  *********************
  Node Flooding Summary
  *********************
  
  Flooding refers to all water that overflows a node, whether it ponds or not.
  --------------------------------------------------------------------------
                                                             Total   Maximum
                                 Maximum   Time of Max       Flood    Ponded
                        Hours       Rate    Occurrence      Volume     Depth
  Node                 Flooded       CFS   days hr:min    10^6 gal      Feet
  --------------------------------------------------------------------------
  J13                     0.89     11.04      0  03:10       0.174     0.000
  J14                     2.44      6.57      0  03:16       0.299     0.000
  J15                     4.89     13.78      0  03:17       1.026     0.000
  J18                     5.99     11.36      0  03:27       1.137     0.000
  J24                    35.30      2.98      0  13:20       1.828     0.000
  93-49868                0.21     49.80      0  03:00       0.166     0.000
  93-49919                0.20     93.81      0  03:00       0.252     0.000
  
  
  **********************
  Storage Volume Summary
  **********************
  
  --------------------------------------------------------------------------------------------------
                         Average     Avg  Evap Exfil       Maximum     Max    Time of Max    Maximum
                          Volume    Pcnt  Pcnt  Pcnt        Volume    Pcnt     Occurrence    Outflow
  Storage Unit          1000 ft3    Full  Loss  Loss      1000 ft3    Full    days hr:min        CFS
  --------------------------------------------------------------------------------------------------
  93-49743                 6.273       2     0     0       146.316      53       0  03:26      16.04
  93-49868                 0.154       1     0     0        12.966     100       0  02:57      15.65
  93-49919                 1.080       2     0     0        45.480     100       0  02:59      19.11
  93-49921               148.167      13     0     0       711.157      63       0  12:12       8.24
  93-50074                10.956       2     0     0       156.512      23       0  03:42      11.91
  93-50076               361.619      33     0     0       612.629      56       2  08:20       2.02
  93-50077               154.883      14     0     0       355.031      32       0  06:39       3.72
  93-50081                 0.794       3     0     0         3.953      14       0  03:07       3.32
  93-50225                 2.611       0     0     0        56.708      10       0  04:10      11.21
  93-90357                 0.487       1     0     0        28.661      39       0  03:10      10.87
  93-90358                 0.985       1     0     0        39.099      28       0  03:12      11.09
  
  
  ***********************
  Outfall Loading Summary
  ***********************
  
  -------------------------------------------------------------------------
                         Flow       Avg       Max       Total         Total
                         Freq      Flow      Flow      Volume           TSS
  Outfall Node           Pcnt       CFS       CFS    10^6 gal           lbs
  -------------------------------------------------------------------------
  ZOF1                  99.95      2.41      3.72      10.514      1406.500
  -------------------------------------------------------------------------
  System                99.95      2.41      3.72      10.514      1406.500
  
  
  ********************
  Link Flow Summary
  ********************
  
  -----------------------------------------------------------------------------
                                 Maximum  Time of Max   Maximum    Max/    Max/
                                  |Flow|   Occurrence   |Veloc|    Full    Full
  Link                 Type          CFS  days hr:min    ft/sec    Flow   Depth
  -----------------------------------------------------------------------------
  C08                  CONDUIT      5.86     0  02:40      7.61    1.06    1.00
  C09                  CONDUIT     47.60     0  01:45    >50.00    2.97    1.00
  C10                  CONDUIT      5.74     0  04:22     10.03    1.03    1.00
  C11                  CONDUIT      2.02     2  08:20      4.30    0.18    0.64
  C12                  CONDUIT      3.31     0  03:08      5.06    0.60    0.78
  C18                  CONDUIT      7.24     0  02:49      9.46    0.96    1.00
  C19                  CONDUIT      5.89     0  02:46      7.64    1.00    1.00
  C21                  CONDUIT      3.29     0  03:06      4.19    1.41    1.00
  C22                  CONDUIT     10.87     0  03:10    >50.00    0.40    0.72
  C95-53307            CONDUIT     11.91     0  03:43      1.87    0.01    0.53
  OR34                 ORIFICE     15.65     0  02:57                          
  OR35                 ORIFICE     11.09     0  03:12                          
  OR36                 ORIFICE     11.21     0  04:10                          
  OR38                 ORIFICE     11.91     0  03:42                          
  OR39                 ORIFICE     16.04     0  03:26                          
  OR43                 ORIFICE     10.87     0  03:10                          
  OR44                 ORIFICE     15.82     0  02:59                          
  OR45                 ORIFICE      8.24     0  12:12                          
  OR46                 ORIFICE      2.02     2  08:20                          
  OR47                 ORIFICE      3.32     0  03:07                          
  OR48                 ORIFICE      3.72     0  06:39                          
  
  
  ***************************
  Flow Classification Summary
  ***************************
  
  -------------------------------------------------------------------------------------
                      Adjusted    ---------- Fraction of Time in Flow Class ---------- 
                       /Actual         Up    Down  Sub   Sup   Up    Down  Norm  Inlet 
  Conduit               Length    Dry  Dry   Dry   Crit  Crit  Crit  Crit  Ltd   Ctrl  
  -------------------------------------------------------------------------------------
  C08                     1.00   0.00  0.04  0.00  0.46  0.50  0.00  0.00  0.30  0.00
  C09                     1.00   0.00  0.00  0.00  0.93  0.06  0.00  0.00  0.99  0.00
  C10                     1.00   0.00  0.00  0.00  0.92  0.08  0.00  0.00  0.71  0.00
  C11                     1.00   0.00  0.00  0.00  0.44  0.55  0.00  0.00  1.00  0.00
  C12                     1.00   0.00  0.00  0.00  0.90  0.10  0.00  0.00  0.99  0.00
  C18                     1.00   0.00  0.00  0.00  1.00  0.00  0.00  0.00  0.18  0.00
  C19                     1.00   0.00  0.61  0.00  0.37  0.01  0.00  0.00  0.98  0.00
  C21                     1.00   0.00  0.00  0.00  1.00  0.00  0.00  0.00  0.01  0.00
  C22                     1.00   0.00  0.76  0.00  0.21  0.03  0.00  0.00  1.00  0.00
  C95-53307               1.00   0.00  0.13  0.00  0.87  0.00  0.00  0.00  1.00  0.00
  
  
  *************************
  Conduit Surcharge Summary
  *************************
  
  ----------------------------------------------------------------------------
                                                           Hours        Hours 
                         --------- Hours Full --------   Above Full   Capacity
  Conduit                Both Ends  Upstream  Dnstream   Normal Flow   Limited
  ----------------------------------------------------------------------------
  C08                         5.99      5.99     11.12      0.09         0.01
  C09                         0.35      0.90     51.54      0.70         0.01
  C10                        33.89     35.30    163.45      0.40         0.01
  C11                         0.01      0.01     29.97      0.01         0.01
  C12                         0.01      0.01    117.66      0.01         0.01
  C18                         0.89      0.89      3.14      0.01         0.01
  C19                         2.44      2.44      5.65      0.01         0.01
  C21                         4.06      4.89      4.44      1.68         0.01
  C22                         0.01      0.01      4.86      0.01         0.01
  C95-53307                   0.01      0.01      9.11      0.01         0.01
  
  
  ***************************
  Link Pollutant Load Summary
  ***************************
  
  ----------------------------------
                                 TSS
  Link                           lbs
  ----------------------------------
  C08                        175.652
  C09                        321.404
  C10                        957.733
  C11                        935.101
  C12                        951.872
  C18                         57.910
  C19                        103.507
  C21                         79.311
  C22                         97.732
  C95-53307                  493.905
  OR34                        93.354
  OR35                       164.297
  OR36                       255.154
  OR38                       462.439
  OR39                       387.308
  OR43                        97.678
  OR44                       233.157
  OR45                      1226.425
  OR46                       935.089
  OR47                       951.675
  OR48                      1406.500
  

  Analysis begun on:  Tue Jan 22 23:59:17 2019
  Analysis ended on:  Tue Jan 22 23:59:20 2019
  Total elapsed time: 00:00:03