
  EPA STORM WATER MANAGEMENT MODEL - VERSION 5.1 (Build 5.2.0.dev5)
  --------------------------------------------------------------

  
  **********************           Volume        Volume
  Rainfall Dependent I/I        acre-feet      10^6 gal
  **********************        ---------     ---------
  Sewershed Rainfall ......        38.538        12.558
  RDII Produced ...........         4.683         1.526
  RDII Ratio ..............         0.122
  
  
  *********************************************************
  NOTE: The summary statistics displayed in this report are
  based on results found at every computational time step,  
  not just on results from each reporting time step.
  *********************************************************
  
  ****************
  Analysis Options
  ****************
  Flow Units ............... CFS
  Process Models:
    Rainfall/Runoff ........ YES
    RDII ................... YES
    Snowmelt ............... NO
    Groundwater ............ NO
    Flow Routing ........... YES
    Ponding Allowed ........ YES
    Water Quality .......... YES
  Infiltration Method ...... GREEN_AMPT
  Flow Routing Method ...... DYNWAVE
  Surcharge Method ......... EXTRAN
  Starting Date ............ 07/05/2014 12:00:00
  Ending Date .............. 07/10/2014 00:05:00
  Antecedent Dry Days ...... 5.0
  Report Time Step ......... 00:01:00
  Wet Time Step ............ 00:01:00
  Dry Time Step ............ 00:01:00
  Routing Time Step ........ 60.00 sec
  Variable Time Step ....... YES
  Maximum Trials ........... 8
  Number of Threads ........ 1
  Head Tolerance ........... 0.005000 ft
  
  
  **************************        Volume         Depth
  Runoff Quantity Continuity     acre-feet        inches
  **************************     ---------       -------
  Total Precipitation ......        28.145         1.640
  Evaporation Loss .........         0.000         0.000
  Infiltration Loss ........        10.831         0.631
  Surface Runoff ...........        16.725         0.974
  Final Storage ............         0.633         0.037
  Continuity Error (%) .....        -0.154
  
  
  **************************           TSS
  Runoff Quality Continuity            lbs
  **************************    ----------
  Initial Buildup ..........      3394.520
  Surface Buildup ..........      1238.585
  Wet Deposition ...........         0.000
  Sweeping Removal .........         0.000
  Infiltration Loss ........         0.000
  BMP Removal ..............         0.000
  Surface Runoff ...........      1107.289
  Remaining Buildup ........      3525.816
  Continuity Error (%) .....         0.000
  
  
  **************************        Volume        Volume
  Flow Routing Continuity        acre-feet      10^6 gal
  **************************     ---------     ---------
  Dry Weather Inflow .......         0.000         0.000
  Wet Weather Inflow .......        16.680         5.435
  Groundwater Inflow .......         0.000         0.000
  RDII Inflow ..............         4.684         1.526
  External Inflow ..........         0.000         0.000
  External Outflow .........         7.203         2.347
  Flooding Loss ............         0.910         0.296
  Evaporation Loss .........         0.000         0.000
  Exfiltration Loss ........         0.000         0.000
  Initial Stored Volume ....         0.000         0.000
  Final Stored Volume ......        13.441         4.380
  Continuity Error (%) .....        -0.893
  
  
  **************************           TSS
  Quality Routing Continuity           lbs
  **************************    ----------
  Dry Weather Inflow .......         0.000
  Wet Weather Inflow .......      1104.315
  Groundwater Inflow .......         0.000
  RDII Inflow ..............         0.000
  External Inflow ..........         0.000
  External Outflow .........       374.499
  Flooding Loss ............        60.250
  Exfiltration Loss ........         0.000
  Mass Reacted .............         0.000
  Initial Stored Mass ......         0.000
  Final Stored Mass ........       672.586
  Continuity Error (%) .....        -0.273
  
  
  *************************
  Highest Continuity Errors
  *************************
  Node J23 (-6.78%)
  Node 93-49921 (3.18%)
  Node J22 (-2.35%)
  
  
  ***************************
  Time-Step Critical Elements
  ***************************
  Link C11 (69.50%)
  Link C09 (26.33%)
  Link C22 (3.80%)
  
  
  ********************************
  Highest Flow Instability Indexes
  ********************************
  Link OR47 (106)
  Link C11 (106)
  Link OR46 (106)
  Link OR34 (97)
  Link OR35 (10)
  
  
  *************************
  Routing Time Step Summary
  *************************
  Minimum Time Step           :     0.50 sec
  Average Time Step           :    28.49 sec
  Maximum Time Step           :    60.00 sec
  Percent in Steady State     :     0.00
  Average Iterations per Step :     2.91
  Percent Not Converging      :     0.84
  
  
  ***************************
  Subcatchment Runoff Summary
  ***************************
  
  ------------------------------------------------------------------------------------------------------------------------------
                            Total      Total      Total      Total     Imperv       Perv      Total       Total     Peak  Runoff
                           Precip      Runon       Evap      Infil     Runoff     Runoff     Runoff      Runoff   Runoff   Coeff
  Subcatchment                 in         in         in         in         in         in         in    10^6 gal      CFS
  ------------------------------------------------------------------------------------------------------------------------------
  102                        1.64       0.00       0.00       0.72       0.89       0.00       0.89        0.07     6.69   0.541
  103                        1.64       0.00       0.00       0.97       0.65       0.00       0.65        0.10    10.45   0.397
  115                        1.64       0.00       0.00       1.01       0.60       0.00       0.61        0.17    13.04   0.369
  120                        1.64       0.00       0.00       0.79       0.82       0.00       0.82        0.15    15.01   0.503
  1472                       1.64       0.00       0.00       0.59       1.01       0.00       1.01        0.09     8.59   0.618
  1497                       1.64       0.00       0.00       0.23       1.36       0.00       1.36        0.55    46.46   0.830
  1499                       1.64       0.00       0.00       0.08       1.50       0.00       1.50        1.03    80.60   0.918
  1503                       1.64       0.00       0.00       0.43       1.17       0.00       1.17        0.04     3.71   0.715
  1506                       1.64       0.00       0.00       0.80       0.81       0.00       0.81        0.22    22.77   0.493
  1570                       1.64       0.00       0.00       1.11       0.51       0.00       0.51        0.11    11.50   0.310
  1648                       1.64       0.00       0.00       0.90       0.71       0.00       0.71        0.05     5.42   0.435
  1736                       1.64       0.00       0.00       0.74       0.87       0.00       0.87        0.35    35.75   0.532
  1780                       1.64       0.00       0.00       0.98       0.63       0.00       0.63        0.04     4.20   0.387
  54                         1.64       0.00       0.00       0.21       1.38       0.00       1.38        1.36   109.86   0.839
  57                         1.64       0.00       0.00       1.12       0.51       0.00       0.51        0.14    10.96   0.309
  62                         1.64       0.00       0.00       1.05       0.57       0.00       0.57        0.16    17.53   0.350
  93                         1.64       0.00       0.00       0.75       0.86       0.00       0.86        0.19    19.68   0.522
  94                         1.64       0.00       0.00       1.05       0.56       0.02       0.57        0.20    22.50   0.349
  97                         1.64       0.00       0.00       0.84       0.78       0.00       0.78        0.41    42.86   0.474
  
  
  ****************************
  Subcatchment Washoff Summary
  ****************************
  
  ----------------------------------
                                 TSS
  Subcatchment                   lbs
  ----------------------------------
  102                         13.905
  103                         20.177
  115                         34.403
  120                         30.452
  1472                        17.966
  1497                       112.417
  1499                       209.536
  1503                         8.664
  1506                        45.262
  1570                        22.084
  1648                        10.675
  1736                        72.131
  1780                         8.163
  54                         276.184
  57                          28.274
  62                          33.466
  93                          38.875
  94                          40.371
  97                          84.285
  ----------------------------------
  System                    1107.289
  
  
  ******************
  Node Depth Summary
  ******************
  
  ---------------------------------------------------------------------------------
                                 Average  Maximum  Maximum  Time of Max    Reported
                                   Depth    Depth      HGL   Occurrence   Max Depth
  Node                 Type         Feet     Feet     Feet  days hr:min        Feet
  ---------------------------------------------------------------------------------
  J13                  JUNCTION     0.03     0.55   888.72     0  03:08        0.55
  J14                  JUNCTION     0.06     0.73   881.73     0  03:58        0.73
  J15                  JUNCTION     0.17     1.00   872.00     0  02:55        1.00
  J18                  JUNCTION     0.17     0.29   874.51     0  12:09        0.29
  J19                  JUNCTION     0.10     0.21   858.49     0  04:49        0.21
  J22                  JUNCTION     0.02     0.43   879.43     0  03:07        0.43
  J23                  JUNCTION     0.08     0.29   868.29     0  05:37        0.29
  J24                  JUNCTION     0.12     0.13   846.13     2  15:41        0.13
  J25                  JUNCTION     0.09     0.11   832.61     0  06:17        0.11
  J26                  JUNCTION     0.14     0.44   821.94     0  03:07        0.44
  ZOF1                 OUTFALL      0.00     0.00   810.00     0  00:00        0.00
  93-49743             STORAGE      3.62     8.18   882.40     0  12:08        8.18
  93-49868             STORAGE      0.09     2.59   890.76     0  03:07        2.59
  93-49919             STORAGE      0.37     1.86   869.86     0  05:37        1.86
  93-49921             STORAGE      4.77     5.74   851.74     2  15:39        5.74
  93-50074             STORAGE      0.86     3.37   861.65     0  04:47        3.37
  93-50076             STORAGE      0.18     0.21   832.71     0  06:17        0.21
  93-50077             STORAGE      0.52     1.91   811.91     0  06:08        1.91
  93-50081             STORAGE      0.23     0.84   822.34     0  03:06        0.84
  93-50225             STORAGE      0.48     4.47   875.47     0  04:46        4.47
  93-90357             STORAGE      0.06     2.17   881.17     0  03:07        2.17
  93-90358             STORAGE      0.25     4.12   885.12     0  03:47        4.12
  
  
  *******************
  Node Inflow Summary
  *******************
  
  -------------------------------------------------------------------------------------------------
                                  Maximum  Maximum                  Lateral       Total        Flow
                                  Lateral    Total  Time of Max      Inflow      Inflow     Balance
                                   Inflow   Inflow   Occurrence      Volume      Volume       Error
  Node                 Type           CFS      CFS  days hr:min    10^6 gal    10^6 gal     Percent
  -------------------------------------------------------------------------------------------------
  J13                  JUNCTION      0.00     4.42     0  03:08           0       0.199      -0.303
  J14                  JUNCTION      0.00     4.62     0  03:47           0        0.42      -0.029
  J15                  JUNCTION      0.00     4.82     0  04:46           0         0.7      -0.011
  J18                  JUNCTION      0.00     1.02     0  12:08           0        1.27      -0.002
  J19                  JUNCTION      0.00     2.82     0  04:47           0        2.02      -0.115
  J22                  JUNCTION      0.00     5.52     0  03:07           0       0.176      -2.295
  J23                  JUNCTION      0.00     2.89     0  05:37           0       0.905      -6.353
  J24                  JUNCTION      0.00     0.19     2  15:40           0       0.517       0.037
  J25                  JUNCTION      0.00     0.27     0  06:17           0       0.552       0.593
  J26                  JUNCTION      0.00     2.26     0  03:06           0       0.593       0.014
  ZOF1                 OUTFALL       0.00     3.35     0  06:08           0        2.35       0.000
  93-49743             STORAGE      72.64    72.64     0  02:55        1.27        1.27       0.021
  93-49868             STORAGE      22.50    22.50     0  03:05       0.198       0.199       0.217
  93-49919             STORAGE      51.45    53.89     0  02:55       0.501       0.905      -0.072
  93-49921             STORAGE      98.14   102.10     0  02:55        1.78        4.76       3.287
  93-50074             STORAGE      66.14    66.84     0  02:55       0.743        2.02       0.006
  93-50076             STORAGE      10.96    11.03     0  02:55       0.139       0.656      -0.194
  93-50077             STORAGE     109.87   111.26     0  02:55        1.79        2.38       0.005
  93-50081             STORAGE       3.71     3.75     0  02:55      0.0425       0.592      -0.289
  93-50225             STORAGE      10.45    19.12     0  03:05      0.0989         0.7      -0.177
  93-90357             STORAGE      18.19    18.19     0  02:55       0.176       0.176       0.015
  93-90358             STORAGE      22.77    26.74     0  02:55       0.222        0.42       0.010
  
  
  **********************
  Node Surcharge Summary
  **********************
  
  Surcharging occurs when water rises above the top of the highest conduit.
  ---------------------------------------------------------------------
                                               Max. Height   Min. Depth
                                   Hours       Above Crown    Below Rim
  Node                 Type      Surcharged           Feet         Feet
  ---------------------------------------------------------------------
  J15                  JUNCTION        4.99          0.000        0.000
  93-49743             STORAGE        56.12          7.180        6.780
  93-49868             STORAGE         1.29          1.586        7.414
  93-49919             STORAGE         9.44          0.860        8.140
  93-50074             STORAGE        18.29          2.367       10.353
  93-50077             STORAGE        14.87          0.913        8.087
  93-50225             STORAGE         5.36          3.068       15.532
  93-90357             STORAGE         0.72          1.174        7.826
  93-90358             STORAGE         3.46          3.117        5.883
  
  
  *********************
  Node Flooding Summary
  *********************
  
  Flooding refers to all water that overflows a node, whether it ponds or not.
  --------------------------------------------------------------------------
                                                             Total   Maximum
                                 Maximum   Time of Max       Flood    Ponded
                        Hours       Rate    Occurrence      Volume     Depth
  Node                 Flooded       CFS   days hr:min    10^6 gal      Feet
  --------------------------------------------------------------------------
  J15                     4.99      2.85      0  04:47       0.296     0.000
  
  
  **********************
  Storage Volume Summary
  **********************
  
  --------------------------------------------------------------------------------------------------
                         Average     Avg  Evap Exfil       Maximum     Max    Time of Max    Maximum
                          Volume    Pcnt  Pcnt  Pcnt        Volume    Pcnt     Occurrence    Outflow
  Storage Unit          1000 ft3    Full  Loss  Loss      1000 ft3    Full    days hr:min        CFS
  --------------------------------------------------------------------------------------------------
  93-49743                37.217      14     0     0        95.995      35       0  12:08       1.02
  93-49868                 0.142       0     0     0         8.694       7       0  03:07       4.42
  93-49919                10.353       2     0     0        57.889      13       0  05:37       2.89
  93-49921               465.307      41     0     0       569.891      51       2  15:39       0.19
  93-50074                16.932       2     0     0        75.007      11       0  04:47       2.82
  93-50076                14.008       1     0     0        17.057       2       0  06:17       0.27
  93-50077                38.833       4     0     0       147.530      14       0  06:08       3.35
  93-50081                 0.075       0     0     0         0.841       3       0  03:06       2.26
  93-50225                 3.467       1     0     0        35.558       6       0  04:46       4.82
  93-90357                 0.129       0     0     0         7.026       9       0  03:07       5.52
  93-90358                 0.871       1     0     0        20.085      14       0  03:47       4.62
  
  
  ***********************
  Outfall Loading Summary
  ***********************
  
  -------------------------------------------------------------------------
                         Flow       Avg       Max       Total         Total
                         Freq      Flow      Flow      Volume           TSS
  Outfall Node           Pcnt       CFS       CFS    10^6 gal           lbs
  -------------------------------------------------------------------------
  ZOF1                  99.84      1.14      3.35       2.347       374.479
  -------------------------------------------------------------------------
  System                99.84      1.14      3.35       2.347       374.479
  
  
  ********************
  Link Flow Summary
  ********************
  
  -----------------------------------------------------------------------------
                                 Maximum  Time of Max   Maximum    Max/    Max/
                                  |Flow|   Occurrence   |Veloc|    Full    Full
  Link                 Type          CFS  days hr:min    ft/sec    Flow   Depth
  -----------------------------------------------------------------------------
  C08                  CONDUIT      1.02     0  12:10      4.70    0.18    0.65
  C09                  CONDUIT     11.11     0  02:10    >50.00    0.69    0.64
  C10                  CONDUIT      0.19     2  15:42      3.02    0.03    0.16
  C11                  CONDUIT      0.27     0  06:17      3.02    0.02    0.46
  C12                  CONDUIT      2.25     0  03:07      4.23    0.40    0.72
  C18                  CONDUIT      4.42     0  03:08      6.77    0.58    0.77
  C19                  CONDUIT      4.62     0  03:48      6.45    0.79    0.87
  C21                  CONDUIT      2.46     0  02:54      3.63    1.06    1.00
  C22                  CONDUIT      5.52     0  03:07    >50.00    0.20    0.65
  C95-53307            CONDUIT      2.82     0  04:49      2.48    0.00    0.45
  OR34                 ORIFICE      4.42     0  03:08                          
  OR35                 ORIFICE      4.62     0  03:47                          
  OR36                 ORIFICE      4.82     0  04:46                          
  OR38                 ORIFICE      2.82     0  04:47                          
  OR39                 ORIFICE      1.02     0  12:08                          
  OR43                 ORIFICE      5.52     0  03:07                          
  OR44                 ORIFICE      2.89     0  05:37                          
  OR45                 ORIFICE      0.19     2  15:40                          
  OR46                 ORIFICE      0.27     0  06:17                          
  OR47                 ORIFICE      2.26     0  03:06                          
  OR48                 ORIFICE      3.35     0  06:08                          
  
  
  ***************************
  Flow Classification Summary
  ***************************
  
  -------------------------------------------------------------------------------------
                      Adjusted    ---------- Fraction of Time in Flow Class ---------- 
                       /Actual         Up    Down  Sub   Sup   Up    Down  Norm  Inlet 
  Conduit               Length    Dry  Dry   Dry   Crit  Crit  Crit  Crit  Ltd   Ctrl  
  -------------------------------------------------------------------------------------
  C08                     1.00   0.00  0.04  0.00  0.49  0.48  0.00  0.00  0.80  0.00
  C09                     1.00   0.00  0.01  0.00  0.80  0.19  0.00  0.00  0.98  0.00
  C10                     1.00   0.00  0.00  0.00  0.13  0.87  0.00  0.00  0.97  0.00
  C11                     1.00   0.00  0.00  0.00  0.06  0.94  0.00  0.00  1.00  0.00
  C12                     1.00   0.00  0.00  0.00  0.36  0.64  0.00  0.00  0.30  0.00
  C18                     1.00   0.00  0.32  0.00  0.65  0.03  0.00  0.00  0.88  0.00
  C19                     1.00   0.00  0.00  0.00  0.93  0.07  0.00  0.00  0.97  0.00
  C21                     1.00   0.00  0.00  0.00  0.98  0.02  0.00  0.00  0.46  0.00
  C22                     1.00   0.00  0.56  0.00  0.44  0.00  0.00  0.00  0.99  0.00
  C95-53307               1.00   0.00  0.00  0.00  0.99  0.01  0.00  0.00  0.99  0.00
  
  
  *************************
  Conduit Surcharge Summary
  *************************
  
  ----------------------------------------------------------------------------
                                                           Hours        Hours 
                         --------- Hours Full --------   Above Full   Capacity
  Conduit                Both Ends  Upstream  Dnstream   Normal Flow   Limited
  ----------------------------------------------------------------------------
  C08                         0.01      0.01     18.29      0.01         0.01
  C09                         0.01      0.01    105.07      0.01         0.01
  C12                         0.01      0.01     14.87      0.01         0.01
  C18                         0.01      0.01      3.46      0.01         0.01
  C19                         0.01      0.01      6.10      0.01         0.01
  C21                         4.99      4.99      9.44      0.06         0.01
  C22                         0.01      0.01      5.36      0.01         0.01
  
  
  ***************************
  Link Pollutant Load Summary
  ***************************
  
  ----------------------------------
                                 TSS
  Link                           lbs
  ----------------------------------
  C08                        155.730
  C09                        185.684
  C10                         84.350
  C11                         96.351
  C12                        104.626
  C18                         40.176
  C19                         85.400
  C21                         81.670
  C22                         36.246
  C95-53307                  322.803
  OR34                        40.186
  OR35                        85.299
  OR36                       141.928
  OR38                       306.179
  OR39                       155.349
  OR43                        35.814
  OR44                       182.067
  OR45                        84.369
  OR46                        95.743
  OR47                       104.552
  OR48                       374.479
  

  Analysis begun on:  Wed Aug 21 11:20:50 2019
  Analysis ended on:  Wed Aug 21 11:20:54 2019
  Total elapsed time: 00:00:04