
  EPA STORM WATER MANAGEMENT MODEL - VERSION 5.1 (Build 5.2.0.dev4)
  --------------------------------------------------------------

  
  **********************           Volume        Volume
  Rainfall Dependent I/I        acre-feet      10^6 gal
  **********************        ---------     ---------
  Sewershed Rainfall ......        75.905        24.735
  RDII Produced ...........        10.331         3.366
  RDII Ratio ..............         0.136
  
  
  *********************************************************
  NOTE: The summary statistics displayed in this report are
  based on results found at every computational time step,  
  not just on results from each reporting time step.
  *********************************************************
  
  ****************
  Analysis Options
  ****************
  Flow Units ............... CFS
  Process Models:
    Rainfall/Runoff ........ YES
    RDII ................... YES
    Snowmelt ............... NO
    Groundwater ............ NO
    Flow Routing ........... YES
    Ponding Allowed ........ YES
    Water Quality .......... YES
  Infiltration Method ...... GREEN_AMPT
  Flow Routing Method ...... DYNWAVE
  Starting Date ............ 07/05/2014 12:00:00
  Ending Date .............. 07/10/2014 00:05:00
  Antecedent Dry Days ...... 5.0
  Report Time Step ......... 00:01:00
  Wet Time Step ............ 00:01:00
  Dry Time Step ............ 00:01:00
  Routing Time Step ........ 60.00 sec
  Variable Time Step ....... YES
  Maximum Trials ........... 8
  Number of Threads ........ 1
  Head Tolerance ........... 0.005000 ft
  
  
  **************************        Volume         Depth
  Runoff Quantity Continuity     acre-feet        inches
  **************************     ---------       -------
  Total Precipitation ......        55.435         3.230
  Evaporation Loss .........         0.000         0.000
  Infiltration Loss ........        16.665         0.971
  Surface Runoff ...........        38.156         2.223
  Final Storage ............         0.633         0.037
  Continuity Error (%) .....        -0.035
  
  
  **************************           TSS
  Runoff Quality Continuity            lbs
  **************************    ----------
  Initial Buildup ..........      3394.520
  Surface Buildup ..........      2325.060
  Wet Deposition ...........         0.000
  Sweeping Removal .........         0.000
  Infiltration Loss ........         0.000
  BMP Removal ..............         0.000
  Surface Runoff ...........      2302.711
  Remaining Buildup ........      3416.869
  Continuity Error (%) .....         0.000
  
  
  **************************        Volume        Volume
  Flow Routing Continuity        acre-feet      10^6 gal
  **************************     ---------     ---------
  Dry Weather Inflow .......         0.000         0.000
  Wet Weather Inflow .......        38.107        12.418
  Groundwater Inflow .......         0.000         0.000
  RDII Inflow ..............        10.331         3.367
  External Inflow ..........         0.000         0.000
  External Outflow .........        27.867         9.081
  Flooding Loss ............        19.375         6.314
  Evaporation Loss .........         0.000         0.000
  Exfiltration Loss ........         0.000         0.000
  Initial Stored Volume ....         0.000         0.000
  Final Stored Volume ......         1.363         0.444
  Continuity Error (%) .....        -0.344
  
  
  **************************           TSS
  Quality Routing Continuity           lbs
  **************************    ----------
  Dry Weather Inflow .......         0.000
  Wet Weather Inflow .......      2299.390
  Groundwater Inflow .......         0.000
  RDII Inflow ..............         0.000
  External Inflow ..........         0.000
  External Outflow .........      1218.201
  Flooding Loss ............      1072.558
  Exfiltration Loss ........         0.000
  Mass Reacted .............         0.000
  Initial Stored Mass ......         0.000
  Final Stored Mass ........        37.102
  Continuity Error (%) .....        -1.238
  
  
  ***************************
  Time-Step Critical Elements
  ***************************
  Link C11 (71.86%)
  Link C09 (13.28%)
  Link C22 (1.88%)
  
  
  ********************************
  Highest Flow Instability Indexes
  ********************************
  Link OR46 (34)
  Link C11 (33)
  Link OR47 (28)
  Link C12 (3)
  Link OR34 (2)
  
  
  *************************
  Routing Time Step Summary
  *************************
  Minimum Time Step           :     1.84 sec
  Average Time Step           :    17.55 sec
  Maximum Time Step           :    60.00 sec
  Percent in Steady State     :    -0.00
  Average Iterations per Step :     2.21
  Percent Not Converging      :     0.57
  
  
  ***************************
  Subcatchment Runoff Summary
  ***************************
  
  --------------------------------------------------------------------------------------------------------
                            Total      Total      Total      Total      Total       Total     Peak  Runoff
                           Precip      Runon       Evap      Infil     Runoff      Runoff   Runoff   Coeff
  Subcatchment                 in         in         in         in         in    10^6 gal      CFS
  --------------------------------------------------------------------------------------------------------
  102                        3.23       0.00       0.00       1.17       2.02        0.16    13.74   0.627
  103                        3.23       0.00       0.00       1.47       1.73        0.26    26.67   0.536
  115                        3.23       0.00       0.00       1.43       1.78        0.50    33.86   0.550
  120                        3.23       0.00       0.00       1.20       2.00        0.36    33.51   0.619
  1472                       3.23       0.00       0.00       0.92       2.27        0.20    17.23   0.704
  1497                       3.23       0.00       0.00       0.34       2.83        1.15    87.74   0.878
  1499                       3.23       0.00       0.00       0.11       3.06        2.10   149.43   0.948
  1503                       3.23       0.00       0.00       0.62       2.56        0.09     7.56   0.794
  1506                       3.23       0.00       0.00       1.30       1.90        0.52    48.42   0.588
  1570                       3.23       0.00       0.00       1.69       1.52        0.32    33.71   0.471
  1648                       3.23       0.00       0.00       1.47       1.73        0.13    12.07   0.537
  1736                       3.23       0.00       0.00       1.19       2.00        0.82    73.80   0.621
  1780                       3.23       0.00       0.00       1.61       1.60        0.10     9.88   0.495
  54                         3.23       0.00       0.00       0.33       2.85        2.82   210.91   0.883
  57                         3.23       0.00       0.00       1.98       1.23        0.34    24.80   0.382
  62                         3.23       0.00       0.00       1.55       1.66        0.48    50.68   0.515
  93                         3.23       0.00       0.00       1.17       2.03        0.45    42.37   0.628
  94                         3.23       0.00       0.00       1.41       1.80        0.62    65.60   0.558
  97                         3.23       0.00       0.00       1.31       1.89        1.01    95.96   0.585
  
  
  ****************************
  Subcatchment Washoff Summary
  ****************************
  
  ----------------------------------
                                 TSS
  Subcatchment                   lbs
  ----------------------------------
  102                         31.746
  103                         53.694
  115                        101.084
  120                         73.897
  1472                        38.779
  1497                       195.945
  1499                       338.578
  1503                        17.022
  1506                       106.337
  1570                        66.096
  1648                        25.952
  1736                       165.955
  1780                        20.590
  54                         476.895
  57                          69.012
  62                          97.157
  93                          92.049
  94                         127.127
  97                         204.795
  ----------------------------------
  System                    2302.711
  
  
  ******************
  Node Depth Summary
  ******************
  
  ---------------------------------------------------------------------------------
                                 Average  Maximum  Maximum  Time of Max    Reported
                                   Depth    Depth      HGL   Occurrence   Max Depth
  Node                 Type         Feet     Feet     Feet  days hr:min        Feet
  ---------------------------------------------------------------------------------
  J13                  JUNCTION     0.06     1.00   889.17     0  02:55        1.00
  J14                  JUNCTION     0.09     1.00   882.00     0  02:47        1.00
  J15                  JUNCTION     0.16     1.00   872.00     0  01:59        1.00
  J18                  JUNCTION     0.29     1.00   875.22     0  02:41        1.00
  J19                  JUNCTION     0.13     0.42   858.70     0  03:43        0.42
  J22                  JUNCTION     0.03     0.62   879.62     0  03:10        0.62
  J23                  JUNCTION     0.10     0.67   868.67     0  01:39        0.67
  J24                  JUNCTION     0.66     1.00   847.00     0  02:56        1.00
  J25                  JUNCTION     0.36     0.48   832.98     1  07:27        0.48
  J26                  JUNCTION     0.70     1.00   822.50     0  13:42        1.00
  ZOF1                 OUTFALL      0.00     0.00   810.00     0  00:00        0.00
  93-49743             STORAGE      1.14    10.45   884.67     0  03:26       10.45
  93-49868             STORAGE      0.21     4.84   893.01     0  03:14        4.84
  93-49919             STORAGE      0.38     3.07   871.07     0  03:26        3.07
  93-49921             STORAGE      2.48     6.05   852.05     0  10:59        6.05
  93-50074             STORAGE      0.92     5.63   863.91     0  03:42        5.63
  93-50076             STORAGE      0.98     1.54   834.04     1  07:27        1.54
  93-50077             STORAGE      4.99     6.09   816.09     1  18:13        6.09
  93-50081             STORAGE      1.33     2.06   823.56     1  07:44        2.06
  93-50225             STORAGE      0.51     5.62   876.62     0  04:10        5.62
  93-90357             STORAGE      0.15     4.96   883.96     0  03:10        4.96
  93-90358             STORAGE      0.33     5.50   886.50     0  03:12        5.50
  
  
  *******************
  Node Inflow Summary
  *******************
  
  -------------------------------------------------------------------------------------------------
                                  Maximum  Maximum                  Lateral       Total        Flow
                                  Lateral    Total  Time of Max      Inflow      Inflow     Balance
                                   Inflow   Inflow   Occurrence      Volume      Volume       Error
  Node                 Type           CFS      CFS  days hr:min    10^6 gal    10^6 gal     Percent
  -------------------------------------------------------------------------------------------------
  J13                  JUNCTION      0.00    10.22     0  03:14           0       0.624      -0.004
  J14                  JUNCTION      0.00    11.07     0  03:12           0       0.968      -0.013
  J15                  JUNCTION      0.00    11.21     0  04:10           0        1.32       0.026
  J18                  JUNCTION      0.00    16.04     0  03:26           0        3.03       0.002
  J19                  JUNCTION      0.00    11.91     0  03:42           0        3.49      -0.209
  J22                  JUNCTION      0.00    10.87     0  03:10           0        0.48      -0.652
  J23                  JUNCTION      0.00     8.34     0  03:26           0        1.56       0.684
  J24                  JUNCTION      0.00    11.72     0  10:59           0        8.89       0.002
  J25                  JUNCTION      0.00     5.36     1  07:27           0        6.16       0.009
  J26                  JUNCTION      0.00     5.36     1  07:44           0        6.26       0.004
  ZOF1                 OUTFALL       0.00     3.98     1  18:13           0        9.08       0.000
  93-49743             STORAGE     163.22   163.22     0  03:00        3.03        3.03       0.004
  93-49868             STORAGE      65.60    65.60     0  03:00       0.625       0.624       0.005
  93-49919             STORAGE     113.19   115.01     0  03:00         1.2        1.55      -0.183
  93-49921             STORAGE     200.24   217.03     0  03:00        3.87        8.91      -0.510
  93-50074             STORAGE     130.11   135.08     0  03:00         1.6        3.49      -0.053
  93-50076             STORAGE      24.80    29.36     0  03:00       0.339        6.23      -0.011
  93-50077             STORAGE     211.00   215.44     0  03:00        3.77        9.39      -0.005
  93-50081             STORAGE       7.56     8.29     0  03:00      0.0932        6.25      -0.008
  93-50225             STORAGE      26.67    40.55     0  03:00       0.264        1.32      -0.075
  93-90357             STORAGE      47.45    47.45     0  03:00       0.481        0.48       0.003
  93-90358             STORAGE      48.42    53.85     0  03:00       0.523       0.968      -0.031
  
  
  **********************
  Node Surcharge Summary
  **********************
  
  Surcharging occurs when water rises above the top of the highest conduit.
  ---------------------------------------------------------------------
                                               Max. Height   Min. Depth
                                   Hours       Above Crown    Below Rim
  Node                 Type      Surcharged           Feet         Feet
  ---------------------------------------------------------------------
  J13                  JUNCTION        2.03          0.000        0.000
  J14                  JUNCTION        3.13          0.000        0.000
  J15                  JUNCTION        5.17          0.000        0.000
  J18                  JUNCTION        6.00          0.000        0.000
  J24                  JUNCTION       27.16          0.000        0.000
  J26                  JUNCTION       27.14          0.000        0.000
  
  
  *********************
  Node Flooding Summary
  *********************
  
  Flooding refers to all water that overflows a node, whether it ponds or not.
  --------------------------------------------------------------------------
                                                             Total   Maximum
                                 Maximum   Time of Max       Flood    Ponded
                        Hours       Rate    Occurrence      Volume     Depth
  Node                 Flooded       CFS   days hr:min    10^6 gal      Feet
  --------------------------------------------------------------------------
  J13                     2.03      5.61      0  03:13       0.178     0.000
  J14                     3.13      6.55      0  03:16       0.399     0.000
  J15                     5.17      9.83      0  04:04       0.966     0.000
  J18                     6.00     11.36      0  03:27       1.137     0.000
  J24                    27.16      6.19      0  11:04       3.001     0.000
  J26                    27.13      1.17      1  07:54       0.632     0.000
  
  
  **********************
  Storage Volume Summary
  **********************
  
  --------------------------------------------------------------------------------------------------
                         Average     Avg  Evap Exfil       Maximum     Max    Time of Max    Maximum
                          Volume    Pcnt  Pcnt  Pcnt        Volume    Pcnt     Occurrence    Outflow
  Storage Unit          1000 ft3    Full  Loss  Loss      1000 ft3    Full    days hr:min        CFS
  --------------------------------------------------------------------------------------------------
  93-49743                10.099       4     0     0       146.276      53       0  03:26      16.04
  93-49868                 1.187       1     0     0        42.882      35       0  03:14      10.22
  93-49919                12.120       3     0     0       116.672      26       0  03:26       8.34
  93-49921               235.180      21     0     0       606.656      54       0  10:59      11.72
  93-50074                21.344       3     0     0       156.495      23       0  03:42      11.91
  93-50076                81.863       8     0     0       129.993      12       1  07:27       5.36
  93-50077               435.250      42     0     0       545.170      52       1  18:13       3.98
  93-50081                 1.894       7     0     0         3.325      12       1  07:44       5.36
  93-50225                 4.290       1     0     0        56.725      10       0  04:10      11.21
  93-90357                 0.598       1     0     0        28.658      39       0  03:10      10.87
  93-90358                 1.651       1     0     0        38.865      28       0  03:12      11.07
  
  
  ***********************
  Outfall Loading Summary
  ***********************
  
  -------------------------------------------------------------------------
                         Flow       Avg       Max       Total         Total
                         Freq      Flow      Flow      Volume           TSS
  Outfall Node           Pcnt       CFS       CFS    10^6 gal           lbs
  -------------------------------------------------------------------------
  ZOF1                  99.92      3.54      3.98       9.080      1218.162
  -------------------------------------------------------------------------
  System                99.92      3.54      3.98       9.080      1218.162
  
  
  ********************
  Link Flow Summary
  ********************
  
  -----------------------------------------------------------------------------
                                 Maximum  Time of Max   Maximum    Max/    Max/
                                  |Flow|   Occurrence   |Veloc|    Full    Full
  Link                 Type          CFS  days hr:min    ft/sec    Flow   Depth
  -----------------------------------------------------------------------------
  C08                  CONDUIT      5.86     0  02:40      7.60    1.06    1.00
  C09                  CONDUIT      8.34     0  03:26     15.98    0.52    0.76
  C10                  CONDUIT      5.91     1  06:09      9.94    1.06    1.00
  C11                  CONDUIT      5.36     1  07:27      8.59    0.47    0.74
  C12                  CONDUIT      5.18     0  03:06      6.97    0.93    1.00
  C18                  CONDUIT      6.68     0  02:55      8.82    0.88    1.00
  C19                  CONDUIT      5.88     0  02:46      7.63    1.00    1.00
  C21                  CONDUIT      2.55     0  02:29      3.71    1.10    1.00
  C22                  CONDUIT     10.87     0  03:10    >50.00    0.40    0.72
  C95-53307            CONDUIT     11.91     0  03:43     43.82    0.01    0.49
  OR34                 ORIFICE     10.22     0  03:14                          
  OR35                 ORIFICE     11.07     0  03:12                          
  OR36                 ORIFICE     11.21     0  04:10                          
  OR38                 ORIFICE     11.91     0  03:42                          
  OR39                 ORIFICE     16.04     0  03:26                          
  OR43                 ORIFICE     10.87     0  03:10                          
  OR44                 ORIFICE      8.34     0  03:26                          
  OR45                 ORIFICE     11.72     0  10:59                          
  OR46                 ORIFICE      5.36     1  07:27                          
  OR47                 ORIFICE      5.36     1  07:44                          
  OR48                 ORIFICE      3.98     1  18:13                          
  
  
  ***************************
  Flow Classification Summary
  ***************************
  
  -------------------------------------------------------------------------------------
                      Adjusted    ---------- Fraction of Time in Flow Class ---------- 
                       /Actual         Up    Down  Sub   Sup   Up    Down  Norm  Inlet 
  Conduit               Length    Dry  Dry   Dry   Crit  Crit  Crit  Crit  Ltd   Ctrl  
  -------------------------------------------------------------------------------------
  C08                     1.00   0.00  0.01  0.00  0.22  0.77  0.00  0.00  0.36  0.00
  C09                     1.00   0.00  0.01  0.00  0.82  0.17  0.00  0.00  0.98  0.00
  C10                     1.00   0.00  0.00  0.00  0.58  0.42  0.00  0.00  0.72  0.00
  C11                     1.00   0.00  0.00  0.00  0.04  0.96  0.00  0.00  1.00  0.00
  C12                     1.00   0.00  0.00  0.00  0.86  0.14  0.00  0.00  0.62  0.00
  C18                     1.00   0.00  0.00  0.00  0.98  0.01  0.00  0.00  0.67  0.00
  C19                     1.00   0.00  0.20  0.00  0.79  0.02  0.00  0.00  0.96  0.00
  C21                     1.00   0.00  0.00  0.00  1.00  0.00  0.00  0.00  0.36  0.00
  C22                     1.00   0.00  0.43  0.00  0.54  0.03  0.00  0.00  1.00  0.00
  C95-53307               1.00   0.00  0.00  0.00  0.99  0.01  0.00  0.00  0.99  0.00
  
  
  *************************
  Conduit Surcharge Summary
  *************************
  
  ----------------------------------------------------------------------------
                                                           Hours        Hours 
                         --------- Hours Full --------   Above Full   Capacity
  Conduit                Both Ends  Upstream  Dnstream   Normal Flow   Limited
  ----------------------------------------------------------------------------
  C08                         6.00      6.00     11.13      0.09         0.01
  C09                         0.01      0.01     34.42      0.01         0.01
  C10                        23.51     27.16     34.61      1.76         0.01
  C11                         0.01      0.01     40.08      0.01         0.01
  C12                        27.13     27.13     98.69      0.01         0.01
  C18                         2.03      2.03      3.83      0.01         0.01
  C19                         3.13      3.13      5.92      0.01         0.01
  C21                         4.47      5.17      6.95      0.75         0.01
  C22                         0.01      0.01      5.12      0.01         0.01
  
  
  ***************************
  Link Pollutant Load Summary
  ***************************
  
  ----------------------------------
                                 TSS
  Link                           lbs
  ----------------------------------
  C08                        175.529
  C09                        312.569
  C10                        778.428
  C11                        844.840
  C12                        775.612
  C18                         90.773
  C19                        116.026
  C21                         70.933
  C22                         97.715
  C95-53307                  492.465
  OR34                       126.986
  OR35                       197.051
  OR36                       267.610
  OR38                       462.213
  OR39                       387.184
  OR43                        97.665
  OR44                       314.638
  OR45                      1237.750
  OR46                       844.704
  OR47                       861.777
  OR48                      1218.162
  

  Analysis begun on:  Thu Mar 28 22:25:10 2019
  Analysis ended on:  Thu Mar 28 22:25:11 2019
  Total elapsed time: 00:00:01