
  EPA STORM WATER MANAGEMENT MODEL - VERSION 5.1 (Build 5.2.0.dev4)
  --------------------------------------------------------------

  GDRSS SWMM Model 
  Last Updated by CDM Smith Inc 12/1/2012 
  4/30/2018 SCT: Most ISD max underflows reduced to 10; 
  
  WARNING 04: minimum elevation drop used for Conduit ISD006_damDOWN
  WARNING 04: minimum elevation drop used for Conduit ISD006_damUP
  
  *************
  Element Count
  *************
  Number of rain gages ...... 54
  Number of subcatchments ... 21
  Number of nodes ........... 89
  Number of links ........... 99
  Number of pollutants ...... 1
  Number of land uses ....... 1
  
  
  *****************
  Pollutant Summary
  *****************
                               Ppt.      GW         Kdecay
  Name                 Units   Concen.   Concen.    1/days    CoPollutant
  -----------------------------------------------------------------------
  TSS                   MG/L      0.00      0.00      0.00
  
  
  ***************
  Landuse Summary
  ***************
                         Sweeping   Maximum      Last
  Name                   Interval   Removal     Swept
  ---------------------------------------------------
  Default                    0.00      0.00      0.00
  
  
  ****************
  Raingage Summary
  ****************
                                                      Data       Recording
  Name                 Data Source                    Type       Interval 
  ------------------------------------------------------------------------
  CHS5                 MAY2015                        CUMULATIVE  15 min.
  CTS1                 MAY2015                        CUMULATIVE  15 min.
  CTS2                 MAY2015                        CUMULATIVE  15 min.
  CTS3                 MAY2015                        CUMULATIVE  15 min.
  CTS4                 MAY2015                        CUMULATIVE  15 min.
  CTUMA                MAY2015                        CUMULATIVE  15 min.
  FRS1                 MAY2015                        CUMULATIVE  15 min.
  HRS1                 MAY2015                        CUMULATIVE  15 min.
  HRS2                 MAY2015                        CUMULATIVE  15 min.
  MAS2                 MAY2015                        CUMULATIVE  15 min.
  PG01                 MAY2015                        CUMULATIVE  15 min.
  PG02                 20160928_PG027                 CUMULATIVE  15 min.
  PG027                MAY2015                        CUMULATIVE  15 min.
  PG028                MAY2015                        CUMULATIVE  15 min.
  PG03                 20170504_PG003                 CUMULATIVE  15 min.
  PG04                 MAY2015                        CUMULATIVE  15 min.
  PG05                 MAY2015                        CUMULATIVE  15 min.
  PG06                 MAY2015                        CUMULATIVE  15 min.
  PG07                 MAY2015                        CUMULATIVE  15 min.
  PG08                 20170504_PG008                 CUMULATIVE  15 min.
  PG09                 MAY2015                        CUMULATIVE  15 min.
  PG10                 MAY2015                        CUMULATIVE  15 min.
  PG11                 MAY2015                        CUMULATIVE  15 min.
  PG12                 MAY2015                        CUMULATIVE  15 min.
  PG13                 MAY2015                        CUMULATIVE  15 min.
  PG14                 MAY2015                        CUMULATIVE  15 min.
  PG15                 20170504_PG002                 CUMULATIVE  15 min.
  PG16                 MAY2015                        CUMULATIVE  15 min.
  PG17                 20170504_PG003                 CUMULATIVE  15 min.
  PG18                 20170504_PG018                 CUMULATIVE  15 min.
  PG19                 MAY2015                        CUMULATIVE  15 min.
  PG20                 MAY2015                        CUMULATIVE  15 min.
  PG21                 MAY2015                        CUMULATIVE  15 min.
  PG22                 MAY2015                        CUMULATIVE  15 min.
  PG23                 MAY2015                        CUMULATIVE  15 min.
  PG24                 20170504_PG018                 CUMULATIVE  15 min.
  PG25                 MAY2015                        CUMULATIVE  15 min.
  PG26                 MAY2015                        CUMULATIVE  15 min.
  PG29                 MAY2015                        CUMULATIVE  15 min.
  PG30                 MAY2015                        CUMULATIVE  15 min.
  PG31                 MAY2015                        CUMULATIVE  15 min.
  PG32                 MAY2015                        CUMULATIVE  15 min.
  PG33                 MAY2015                        CUMULATIVE  15 min.
  PG34                 MAY2015                        CUMULATIVE  15 min.
  STS1                 MAY2015                        CUMULATIVE  15 min.
  STS2                 MAY2015                        CUMULATIVE  15 min.
  STS3                 MAY2015                        CUMULATIVE  15 min.
  STS4                 MAY2015                        CUMULATIVE  15 min.
  STS5                 MAY2015                        CUMULATIVE  15 min.
  STS6                 MAY2015                        CUMULATIVE  15 min.
  SYS1                 MAY2015                        CUMULATIVE  15 min.
  SYS2                 MAY2015                        CUMULATIVE  15 min.
  SYS3                 MAY2015                        CUMULATIVE  15 min.
  UTS1                 MAY2015                        CUMULATIVE  15 min.
  
  
  ********************
  Subcatchment Summary
  ********************
  Name                       Area     Width   %Imperv    %Slope Rain Gage            Outlet              
  -----------------------------------------------------------------------------------------------------------
  S1535                   1034.00 450410.00     35.00    1.0000 PG24                 RC11535             
  S1545                   1155.00 503118.00     40.00    1.0000 PG24                 RC11545             
  S1550                    291.00 126760.00     38.00    1.0000 PG18                 RC11550             
  S1570                   1077.00 469141.00     42.00    1.0000 PG18                 RC11570             
  S1571                   1797.00 782773.00     45.00    1.0000 PG03                 RC11571             
  S1952                   1428.00 622037.00     43.00    1.0000 PG24                 RC1951              
  S19520                   410.00 178596.00     43.00    1.0000 PG15                 RC19523             
  S214500                  173.20  75446.00     75.00    1.0000 PG02                 RC3214500           
  S2160                    479.60 208909.00     41.10    1.0000 PG18                 RC32160             
  S2200                   1593.00 693911.00     37.00    1.0000 PG03                 RC12200             
  S2201                     47.00  20473.00     38.00    1.0000 PG03                 RC12201             
  S2315                   1074.00 467834.00     50.00    1.0000 PG08                 RC12315             
  S2345                    766.00 333670.00     41.00    1.0000 PG08                 RC12345             
  S2350                   1089.00 474368.00     35.00    1.0000 PG08                 RC12350             
  S2355                   1651.00 719176.00     35.00    1.0000 PG03                 RC12355             
  S2389                    800.00 348480.00     40.00    1.0000 PG17                 RC12389             
  S2397                    456.00 198634.00     40.00    1.0000 PG17                 RC12397             
  S2520                    716.00 311890.00     44.00    1.0000 PG03                 RC12520             
  S2521                     62.00  27007.00     39.00    1.0000 PG03                 RC12521             
  S2765                    432.00 188179.00     46.00    1.0000 PG08                 RC12765             
  S2770                     97.00  42253.00     40.00    1.0000 PG08                 RC12770             
  
  
  ************
  Node Summary
  ************
                                           Invert      Max.    Ponded    External
  Name                 Type                 Elev.     Depth      Area    Inflow  
  -------------------------------------------------------------------------------
  3                    JUNCTION            572.76     18.00       0.0
  4                    JUNCTION            569.76     18.00       0.0
  5                    JUNCTION            566.76     18.00       0.0
  1503                 JUNCTION            581.56     29.10       0.0
  1504                 JUNCTION            581.66     29.00       0.0
  1515                 JUNCTION            587.26     33.20       0.0    Yes
  1516                 JUNCTION            587.36     33.10       0.0
  1545                 JUNCTION            594.36     42.90       0.0    Yes
  1952                 JUNCTION            586.36     29.40       0.0    Yes
  2142                 JUNCTION            571.76     41.00       0.0
  2145                 JUNCTION            572.46     48.00       0.0
  2170                 JUNCTION            578.86     55.00       0.0
  2185                 JUNCTION            585.26     52.50       0.0
  2195                 JUNCTION            591.36     45.60       0.0
  2201                 JUNCTION            596.56     47.70       0.0
  2351                 JUNCTION            604.66     27.00       0.0
  2355                 JUNCTION            604.76     28.90       0.0    Yes
  2360                 JUNCTION            606.46     26.10       0.0
  2455                 JUNCTION            589.76     40.00       0.0
  2525                 JUNCTION            607.56     23.40       0.0
  2545                 JUNCTION            612.86     25.00       0.0
  2745                 JUNCTION            580.86     46.40       0.0
  2765                 JUNCTION            583.46     44.30       0.0    Yes
  2770                 JUNCTION            584.86     43.00       0.0    Yes
  2775                 JUNCTION            587.16     43.10       0.0
  15031                JUNCTION            581.66     29.00       0.0
  15032                JUNCTION            581.66     29.00       0.0
  15163                JUNCTION            587.31     33.15       0.0
  15164                JUNCTION            587.31     33.15       0.0
  19521                JUNCTION            586.31     29.45       0.0
  19523                JUNCTION            586.31     29.45       0.0
  21450                JUNCTION            572.46     48.00       0.0
  21453                JUNCTION            572.46     48.00       0.0
  21454                JUNCTION            572.46     48.00       0.0
  21700                JUNCTION            578.76     55.10       0.0
  21703                JUNCTION            578.81     55.05       0.0
  21704                JUNCTION            578.81     55.05       0.0
  21850                JUNCTION            585.21     52.55       0.0
  21852                JUNCTION            585.16     52.60       0.0
  21859                JUNCTION            585.21     52.55       0.0
  21950                JUNCTION            591.26     49.40       0.0
  21953                JUNCTION            591.31     45.65       0.0
  21954                JUNCTION            591.31     45.65       0.0
  22201                JUNCTION            603.86     41.20       0.0
  22202                JUNCTION            603.76     41.30       0.0
  22203                JUNCTION            603.81     41.25       0.0
  22204                JUNCTION            603.81     41.25       0.0
  23553                JUNCTION            604.71     26.95       0.0
  23554                JUNCTION            604.71     26.95       0.0
  25250                JUNCTION            604.56     22.90       0.0
  25251                JUNCTION            604.46     22.30       0.0
  25253                JUNCTION            604.51     22.95       0.0
  25254                JUNCTION            604.51     22.95       0.0
  27453                JUNCTION            580.81     46.45       0.0
  27454                JUNCTION            580.81     46.45       0.0
  RC11535              JUNCTION            938.16     40.00       0.0    Yes
  RC11545              JUNCTION            971.56     40.00       0.0    Yes
  RC11550              JUNCTION            800.96     40.00       0.0    Yes
  RC11570              JUNCTION            970.22     40.00       0.0    Yes
  RC11571              JUNCTION           1086.56     40.00       0.0    Yes
  RC12200              JUNCTION           1052.56     40.00       0.0    Yes
  RC12201              JUNCTION            759.16     40.00       0.0    Yes
  RC12315              JUNCTION            979.53     40.00       0.0    Yes
  RC12345              JUNCTION            913.56     40.00       0.0    Yes
  RC12350              JUNCTION           1009.70     40.00       0.0    Yes
  RC12355              JUNCTION           1091.05     40.00       0.0    Yes
  RC12389              JUNCTION            989.46     40.00       0.0    Yes
  RC12397              JUNCTION            877.36     40.00       0.0    Yes
  RC12520              JUNCTION            907.67     40.00       0.0    Yes
  RC12521              JUNCTION            751.96     40.00       0.0    Yes
  RC12765              JUNCTION            840.96     40.00       0.0    Yes
  RC12770              JUNCTION            742.30     40.00       0.0    Yes
  RC1951               JUNCTION           1014.14     40.00       0.0    Yes
  RC19523              JUNCTION            823.08     40.00       0.0    Yes
  RC3214500            JUNCTION            788.15     40.00       0.0    Yes
  RC32160              JUNCTION            826.72     40.00       0.0    Yes
  1                    OUTFALL             563.76     18.00       0.0
  1502                 STORAGE             578.38     19.98       0.0    Yes
  1535                 STORAGE             591.56     42.20       0.0    Yes
  1550                 STORAGE             597.46     38.30       0.0    Yes
  1570                 STORAGE             601.36     42.40       0.0    Yes
  19520                STORAGE             586.26     29.50       0.0
  2160                 STORAGE             576.46     56.60       0.0    Yes
  2200                 STORAGE             616.86     23.90       0.0    Yes
  2315                 STORAGE             599.06     24.70       0.0    Yes
  2350                 STORAGE             604.56     35.80       0.0    Yes
  2389                 STORAGE             620.36     26.50       0.0    Yes
  2740                 STORAGE             580.36     46.90       0.0    Yes
  27450                STORAGE             580.76     46.50       0.0
  
  
  ************
  Link Summary
  ************
  Name             From Node        To Node          Type            Length    %Slope Roughness
  ---------------------------------------------------------------------------------------------
  1503             1503             1502             CONDUIT         1840.0    0.1728    0.0120
  1509             19520            1504             CONDUIT         3621.0    0.1270    0.0120
  1515             1515             19520            CONDUIT         1200.0    0.0833    0.0130
  1535             1535             1516             CONDUIT         5443.0    0.0772    0.0130
  1545             1545             1535             CONDUIT         3628.0    0.0772    0.0130
  1550             1550             1545             CONDUIT          873.0    0.0974    0.0130
  1570             1570             1550             CONDUIT         6262.0    0.0623    0.0130
  2160             2160             2145             CONDUIT         8078.0    0.0495    0.0130
  2201             2201             2195             CONDUIT         4252.0    0.1223    0.0130
  2202             2200             2201             CONDUIT          230.0    4.5874    0.0470
  2219             22202            2201             CONDUIT         4254.0    0.1693    0.0130
  2349             2350             2775             CONDUIT          255.0    5.2622    0.0680
  2355             2351             2350             CONDUIT          779.0    0.0128    0.0130
  2360             2360             2355             CONDUIT         2881.0    0.0590    0.0130
  2388             2389             22201            CONDUIT         2063.0    0.7998    0.0130
  2425             2315             2455             CONDUIT         9699.0    0.0959    0.0130
  2455             2455             2775             CONDUIT         1352.0    0.0444    0.0130
  2525             2525             25250            CONDUIT         4220.0    0.0711    0.0130
  2545             2545             2525             CONDUIT         6754.0    0.0785    0.0130
  2765             2765             2745             CONDUIT         6555.0    0.0397    0.0130
  2770             2770             2765             CONDUIT         3050.0    0.0459    0.0130
  2775             2775             2770             CONDUIT         5923.0    0.0388    0.0130
  21450            21450            2142             CONDUIT         1907.0    0.0367    0.0130
  21700            21700            2160             CONDUIT         4809.0    0.0478    0.0130
  21853            21852            2170             CONDUIT         5699.0    0.1105    0.0130
  21950            21950            2185             CONDUIT         5130.0    0.1170    0.0130
  25253            25251            2770             CONDUIT          555.0    3.5337    0.0130
  27450            27450            2740             CONDUIT         1190.0    0.0336    0.0130
  Branch02         1502             5                CONDUIT          400.0    2.9062    0.0100
  Branch06         2142             4                CONDUIT          400.0    0.5000    0.0100
  Branch11a        2740             3                CONDUIT          400.0    1.9003    0.0100
  ISD002_damDOWN   15031            1503             CONDUIT          500.0    0.0200    0.0100
  ISD002_damUP     15032            1503             CONDUIT          500.0    0.0200    0.0100
  ISD003_damDOWN   19523            19520            CONDUIT          400.0    0.0125    0.0110
  ISD003_damUP     19521            19520            CONDUIT          400.0    0.0125    0.0100
  ISD004_damDOWN   15164            1515             CONDUIT          400.0    0.0125    0.0100
  ISD004_damUP     15163            1515             CONDUIT          400.0    0.0125    0.0110
  ISD006_damDOWN   21454            21450            CONDUIT          400.0    0.0003    0.0100
  ISD006_damUP     21453            21450            CONDUIT          400.0    0.0003    0.0110
  ISD007_damDOWN   21703            21700            CONDUIT          400.0    0.0125    0.0110
  ISD007_damUP     21704            21700            CONDUIT          400.0    0.0125    0.0100
  ISD008_damDOWN   21859            21852            CONDUIT          400.0    0.0125    0.0110
  ISD008_damUP     21850            21852            CONDUIT          195.2    0.0256    0.0100
  ISD009_damDOWN   21954            21950            CONDUIT          762.8    0.0066    0.0100
  ISD009_damUP     21953            21950            CONDUIT          400.0    0.0125    0.0110
  ISD010_damDOWN   22204            22202            CONDUIT          214.3    0.0233    0.0100
  ISD010_damUP     22203            22202            CONDUIT          400.0    0.0125    0.0110
  ISD011_damDOWN   27453            27450            CONDUIT          400.0    0.0125    0.0110
  ISD011_damUP     27454            27450            CONDUIT          400.0    0.0125    0.0100
  ISD012_damDOWN   25254            25251            CONDUIT          310.8    0.0161    0.0100
  ISD012_damUP     25253            25251            CONDUIT          400.0    0.0125    0.0110
  ISD013_damDOWN   23554            2351             CONDUIT          400.0    0.0125    0.0100
  ISD013_damUP     23553            2351             CONDUIT          400.0    0.0125    0.0110
  RC11535          RC11535          1535             CONDUIT        32880.0    1.0542    0.0130
  RC11545          RC11545          1545             CONDUIT        37310.0    1.0110    0.0130
  RC11550          RC11550          1550             CONDUIT        13800.0    1.4748    0.0130
  RC11570          RC11570          1570             CONDUIT        35848.0    1.0290    0.0130
  RC11571          RC11571          1570             CONDUIT        51360.0    0.9447    0.0130
  RC12200          RC12200          2200             CONDUIT        44760.0    0.9735    0.0130
  RC12201          RC12201          2200             CONDUIT         5640.0    2.5239    0.0130
  RC12315          RC12315          2315             CONDUIT        37396.0    1.0175    0.0130
  RC12345          RC12345          2455             CONDUIT        28240.0    1.1467    0.0130
  RC12350          RC12350          2350             CONDUIT        40685.0    0.9958    0.0130
  RC12355          RC12355          2360             CONDUIT        51505.0    0.9409    0.0130
  RC12389          RC12389          2389             CONDUIT        35880.0    1.0288    0.0130
  RC12397          RC12397          2389             CONDUIT        24289.0    1.0582    0.0160
  RC12520          RC12520          2525             CONDUIT        27121.0    1.1066    0.0130
  RC12521          RC12521          2545             CONDUIT         6360.0    2.1876    0.0130
  RC12765          RC12765          2765             CONDUIT        21000.0    1.2263    0.0130
  RC12770          RC12770          25250            CONDUIT         7658.0    1.7989    0.0130
  RC1951           RC1951           1952             CONDUIT        43704.0    0.9789    0.0130
  RC19523          RC19523          1515             CONDUIT        18109.0    1.3023    0.0130
  RC3214500        RC3214500        2145             CONDUIT        12797.0    1.6857    0.0130
  RC32160          RC32160          2160             CONDUIT        20035.0    1.2492    0.0130
  Trunk02          5                1                CONDUIT         3000.0    0.1000    0.0100
  Trunk06          4                5                CONDUIT         3000.0    0.1000    0.0100
  Trunk11a         3                4                CONDUIT         3000.0    0.1000    0.0100
  ISD002_DOWN      1504             15031            ORIFICE     
  ISD002_UP        1504             15032            ORIFICE     
  ISD003_DOWN      1952             19523            ORIFICE     
  ISD003_UP        1952             19521            ORIFICE     
  ISD004_DOWN      1516             15164            ORIFICE     
  ISD004_UP        1516             15163            ORIFICE     
  ISD006_DOWN      2145             21454            ORIFICE     
  ISD006_UP        2145             21453            ORIFICE     
  ISD007_DOWN      2170             21703            ORIFICE     
  ISD007_UP        2170             21704            ORIFICE     
  ISD008_DOWN      2185             21859            ORIFICE     
  ISD008_UP        2185             21850            ORIFICE     
  ISD009_DOWN      2195             21954            ORIFICE     
  ISD009_UP        2195             21953            ORIFICE     
  ISD010_DOWN      22201            22204            ORIFICE     
  ISD010_UP        22201            22203            ORIFICE     
  ISD011_DOWN      2745             27453            ORIFICE     
  ISD011_UP        2745             27454            ORIFICE     
  ISD012_DOWN      25250            25254            ORIFICE     
  ISD012_UP        25250            25253            ORIFICE     
  ISD013_DOWN      2355             23554            ORIFICE     
  ISD013_UP        2355             23553            ORIFICE     
  
  
  *********************
  Cross Section Summary
  *********************
                                        Full     Full     Hyd.     Max.   No. of     Full
  Conduit          Shape               Depth     Area     Rad.    Width  Barrels     Flow
  ---------------------------------------------------------------------------------------
  1503             RECT_CLOSED         13.45   180.23     3.36    13.40        1  2079.88
  1509             RECT_CLOSED         13.45   180.23     3.36    13.40        1  1783.19
  1515             CIRCULAR            14.00   153.94     3.50    14.00        1  1170.96
  1535             CIRCULAR            14.00   153.94     3.50    14.00        1  1126.78
  1545             CIRCULAR            14.00   153.94     3.50    14.00        1  1126.88
  1550             CIRCULAR            11.50   103.87     2.88    11.50        1   749.07
  1570             CIRCULAR            11.50   103.87     2.88    11.50        1   599.09
  2160             CIRCULAR            15.50   188.69     3.88    15.50        1  1184.10
  2201             CIRCULAR            15.50   188.69     3.88    15.50        1  1860.87
  2202             RECT_CLOSED          4.00    52.80     1.53    13.20        1   475.76
  2219             CIRCULAR            14.00   153.94     3.50    14.00        1  1668.79
  2349             RECT_CLOSED          5.00    78.55     1.90    15.71        1   603.29
  2355             CIRCULAR            11.50   103.87     2.88    11.50        1   271.99
  2360             CIRCULAR            11.50   103.87     2.88    11.50        1   583.14
  2388             CIRCULAR            12.25   117.86     3.06    12.25        1  2540.90
  2425             CIRCULAR            11.50   103.87     2.88    11.50        1   743.36
  2455             CIRCULAR             9.00    63.62     2.25     9.00        1   263.04
  2525             CIRCULAR            10.50    86.59     2.62    10.50        1   502.19
  2545             CIRCULAR            10.50    86.59     2.62    10.50        1   527.62
  2765             CIRCULAR            15.50   188.69     3.88    15.50        1  1059.77
  2770             CIRCULAR            15.50   188.69     3.88    15.50        1  1140.05
  2775             CIRCULAR            15.50   188.69     3.88    15.50        1  1048.58
  21450            CIRCULAR            15.50   188.69     3.88    15.50        1  1019.49
  21700            CIRCULAR            15.50   188.69     3.88    15.50        1  1163.71
  21853            CIRCULAR            15.50   188.69     3.88    15.50        1  1769.22
  21950            CIRCULAR            15.50   188.69     3.88    15.50        1  1819.81
  25253            CIRCULAR            10.50    86.59     2.62    10.50        1  3540.63
  27450            CIRCULAR            15.50   188.69     3.88    15.50        1   975.59
  Branch02         CIRCULAR            14.00   153.94     3.50    14.00        1  8989.62
  Branch06         CIRCULAR            16.00   201.06     4.00    16.00        1  5323.65
  Branch11a        CIRCULAR            16.00   201.06     4.00    16.00        1 10378.58
  ISD002_damDOWN   CIRCULAR            14.70   169.72     3.67    14.70        1   849.37
  ISD002_damUP     FILLED_CIRCULAR      2.95    24.29     1.06    14.70        1    53.07
  ISD003_damDOWN   CIRCULAR             9.00    63.62     2.25     9.00        1   164.98
  ISD003_damUP     FILLED_CIRCULAR      1.80     9.06     0.65     9.00        1    11.26
  ISD004_damDOWN   CIRCULAR            14.00   153.94     3.50    14.00        1   589.57
  ISD004_damUP     FILLED_CIRCULAR      2.80    21.92     1.01    14.00        1    33.25
  ISD006_damDOWN   CIRCULAR            15.50   188.69     3.88    15.50        1   109.38
  ISD006_damUP     FILLED_CIRCULAR      3.10    26.87     1.11    15.50        1     6.17
  ISD007_damDOWN   CIRCULAR            15.50   188.69     3.88    15.50        1   703.10
  ISD007_damUP     FILLED_CIRCULAR      3.10    26.87     1.11    15.50        1    47.99
  ISD008_damDOWN   CIRCULAR            15.50   188.69     3.88    15.50        1   703.10
  ISD008_damUP     FILLED_CIRCULAR      3.10    26.87     1.11    15.50        1    68.70
  ISD009_damDOWN   CIRCULAR            15.50   188.69     3.88    15.50        1   560.07
  ISD009_damUP     FILLED_CIRCULAR      3.10    26.87     1.11    15.50        1    43.62
  ISD010_damDOWN   CIRCULAR            12.25   117.86     3.06    12.25        1   564.11
  ISD010_damUP     FILLED_CIRCULAR      2.45    16.78     0.88    12.25        1    23.29
  ISD011_damDOWN   CIRCULAR            15.50   188.69     3.88    15.50        1   703.10
  ISD011_damUP     FILLED_CIRCULAR      3.10    26.87     1.11    15.50        1    47.99
  ISD012_damDOWN   CIRCULAR            10.50    86.59     2.62    10.50        1   310.54
  ISD012_damUP     FILLED_CIRCULAR      2.10    12.33     0.75    10.50        1    15.44
  ISD013_damDOWN   CIRCULAR            11.50   103.87     2.88    11.50        1   348.91
  ISD013_damUP     FILLED_CIRCULAR      2.30    14.79     0.83    11.50        1    19.68
  RC11535          CIRCULAR            20.00   314.16     5.00    20.00        1 10781.17
  RC11545          CIRCULAR            20.00   314.16     5.00    20.00        1 10558.19
  RC11550          CIRCULAR            20.00   314.16     5.00    20.00        1 12751.80
  RC11570          CIRCULAR            20.00   314.16     5.00    20.00        1 10651.61
  RC11571          CIRCULAR            20.00   314.16     5.00    20.00        1 10206.17
  RC12200          CIRCULAR            20.00   314.16     5.00    20.00        1 10360.11
  RC12201          CIRCULAR            20.00   314.16     5.00    20.00        1 16681.59
  RC12315          CIRCULAR            20.00   314.16     5.00    20.00        1 10591.66
  RC12345          CIRCULAR            20.00   314.16     5.00    20.00        1 11244.13
  RC12350          CIRCULAR            20.00   314.16     5.00    20.00        1 10478.56
  RC12355          CIRCULAR            20.00   314.16     5.00    20.00        1 10185.39
  RC12389          CIRCULAR            20.00   314.16     5.00    20.00        1 10650.32
  RC12397          CIRCULAR             7.50    44.18     1.88     7.50        1   641.78
  RC12520          CIRCULAR            20.00   314.16     5.00    20.00        1 11046.02
  RC12521          CIRCULAR            20.00   314.16     5.00    20.00        1 15530.74
  RC12765          CIRCULAR            20.00   314.16     5.00    20.00        1 11627.88
  RC12770          CIRCULAR            20.00   314.16     5.00    20.00        1 14083.57
  RC1951           CIRCULAR            20.00   314.16     5.00    20.00        1 10388.80
  RC19523          CIRCULAR            20.00   314.16     5.00    20.00        1 11983.04
  RC3214500        CIRCULAR            20.00   314.16     5.00    20.00        1 13633.18
  RC32160          CIRCULAR            20.00   314.16     5.00    20.00        1 11736.09
  Trunk02          CIRCULAR            18.00   254.47     4.50    18.00        1  3259.33
  Trunk06          CIRCULAR            18.00   254.47     4.50    18.00        1  3259.33
  Trunk11a         CIRCULAR            18.00   254.47     4.50    18.00        1  3259.33
  
  
  
  *********************************************************
  NOTE: The summary statistics displayed in this report are
  based on results found at every computational time step,  
  not just on results from each reporting time step.
  *********************************************************
  
  ****************
  Analysis Options
  ****************
  Flow Units ............... CFS
  Process Models:
    Rainfall/Runoff ........ YES
    RDII ................... YES
    Snowmelt ............... NO
    Groundwater ............ NO
    Flow Routing ........... YES
    Ponding Allowed ........ NO
    Water Quality .......... YES
  Infiltration Method ...... HORTON
  Flow Routing Method ...... DYNWAVE
  Starting Date ............ 04/14/2010 00:00:00
  Ending Date .............. 04/20/2010 00:00:00
  Antecedent Dry Days ...... 0.0
  Report Time Step ......... 00:15:00
  Wet Time Step ............ 00:01:00
  Dry Time Step ............ 00:01:00
  Routing Time Step ........ 10.00 sec
  Variable Time Step ....... YES
  Maximum Trials ........... 8
  Number of Threads ........ 1
  Head Tolerance ........... 0.005000 ft
  
  
  **************************        Volume         Depth
  Runoff Quantity Continuity     acre-feet        inches
  **************************     ---------       -------
  Total Precipitation ......      1074.867         0.776
  Evaporation Loss .........         0.000         0.000
  Infiltration Loss ........       632.460         0.456
  Surface Runoff ...........       422.436         0.305
  Final Storage ............        20.024         0.014
  Continuity Error (%) .....        -0.005
  
  
  **************************           TSS
  Runoff Quality Continuity            lbs
  **************************    ----------
  Initial Buildup ..........         0.000
  Surface Buildup ..........    258747.088
  Wet Deposition ...........         0.000
  Sweeping Removal .........         0.000
  Infiltration Loss ........         0.000
  BMP Removal ..............         0.000
  Surface Runoff ...........     21385.243
  Remaining Buildup ........    237361.845
  Continuity Error (%) .....         0.000
  
  
  **************************        Volume        Volume
  Flow Routing Continuity        acre-feet      10^6 gal
  **************************     ---------     ---------
  Dry Weather Inflow .......      2381.826       776.153
  Wet Weather Inflow .......       422.436       137.657
  Groundwater Inflow .......         0.000         0.000
  RDII Inflow ..............         0.000         0.000
  External Inflow ..........         0.000         0.000
  External Outflow .........      2669.176       869.791
  Flooding Loss ............         0.000         0.000
  Evaporation Loss .........         0.000         0.000
  Exfiltration Loss ........         0.000         0.000
  Initial Stored Volume ....         0.004         0.001
  Final Stored Volume ......       140.325        45.727
  Continuity Error (%) .....        -0.187
  
  
  **************************           TSS
  Quality Routing Continuity           lbs
  **************************    ----------
  Dry Weather Inflow .......    996639.201
  Wet Weather Inflow .......     21385.243
  Groundwater Inflow .......         0.000
  RDII Inflow ..............         0.000
  External Inflow ..........         0.000
  External Outflow .........    920734.647
  Flooding Loss ............         0.000
  Exfiltration Loss ........         0.000
  Mass Reacted .............      1713.140
  Initial Stored Mass ......         0.000
  Final Stored Mass ........     76593.564
  Continuity Error (%) .....         1.865
  
  
  *************************
  Highest Continuity Errors
  *************************
  Node 19521 (98.25%)
  Node 23553 (79.23%)
  Node 15032 (72.52%)
  Node 15163 (64.68%)
  Node 21453 (45.70%)
  
  
  ***************************
  Time-Step Critical Elements
  ***************************
  None
  
  
  ********************************
  Highest Flow Instability Indexes
  ********************************
  Link ISD012_DOWN (127)
  Link ISD012_UP (127)
  Link ISD010_DOWN (125)
  Link ISD010_UP (125)
  Link ISD010_damDOWN (108)
  
  
  *************************
  Routing Time Step Summary
  *************************
  Minimum Time Step           :     9.50 sec
  Average Time Step           :    10.00 sec
  Maximum Time Step           :    10.00 sec
  Percent in Steady State     :     0.00
  Average Iterations per Step :     3.99
  Percent Not Converging      :     0.17
  
  
  ***************************
  Subcatchment Runoff Summary
  ***************************
  
  --------------------------------------------------------------------------------------------------------
                            Total      Total      Total      Total      Total       Total     Peak  Runoff
                           Precip      Runon       Evap      Infil     Runoff      Runoff   Runoff   Coeff
  Subcatchment                 in         in         in         in         in    10^6 gal      CFS
  --------------------------------------------------------------------------------------------------------
  S1535                      0.95       0.00       0.00       0.62       0.32        8.90    72.84   0.333
  S1545                      0.95       0.00       0.00       0.57       0.36       11.36    92.89   0.381
  S1550                      0.95       0.00       0.00       0.59       0.34        2.72    22.24   0.362
  S1570                      0.95       0.00       0.00       0.55       0.38       11.12    90.90   0.400
  S1571                      0.97       0.00       0.00       0.53       0.42       20.32   130.49   0.429
  S1952                      0.95       0.00       0.00       0.54       0.39       15.09   123.36   0.410
  S19520                     1.05       0.00       0.00       0.60       0.43        4.81    42.63   0.412
  S214500                    2.11       0.00       0.00       0.47       1.61        7.56   183.31   0.762
  S2160                      0.95       0.00       0.00       0.56       0.37        4.85    39.62   0.392
  S2200                      0.97       0.00       0.00       0.61       0.34       14.81    95.11   0.353
  S2201                      0.97       0.00       0.00       0.60       0.35        0.45     2.88   0.362
  S2315                      0.00       0.00       0.00       0.00       0.00        0.00     0.00   0.000
  S2345                      0.00       0.00       0.00       0.00       0.00        0.00     0.00   0.000
  S2350                      0.00       0.00       0.00       0.00       0.00        0.00     0.00   0.000
  S2355                      0.97       0.00       0.00       0.63       0.32       14.52    93.25   0.334
  S2389                      0.97       0.00       0.00       0.58       0.37        8.04    51.64   0.381
  S2397                      0.97       0.00       0.00       0.58       0.37        4.58    29.43   0.381
  S2520                      0.97       0.00       0.00       0.54       0.41        7.92    50.84   0.420
  S2521                      0.97       0.00       0.00       0.59       0.36        0.61     3.90   0.372
  S2765                      0.00       0.00       0.00       0.00       0.00        0.00     0.00   0.000
  S2770                      0.00       0.00       0.00       0.00       0.00        0.00     0.00   0.000
  
  
  ****************************
  Subcatchment Washoff Summary
  ****************************
  
  ----------------------------------
                                 TSS
  Subcatchment                   lbs
  ----------------------------------
  S1535                     1355.729
  S1545                     1727.478
  S1550                      414.416
  S1570                     1684.719
  S1571                     3292.439
  S1952                     2282.185
  S19520                     773.267
  S214500                    726.024
  S2160                      735.625
  S2200                     2448.734
  S2201                       74.170
  S2315                        0.000
  S2345                        0.000
  S2350                        0.000
  S2355                     2402.808
  S2389                     1324.187
  S2397                      754.787
  S2520                     1288.490
  S2521                      100.185
  S2765                        0.000
  S2770                        0.000
  ----------------------------------
  System                   21385.243
  
  
  ******************
  Node Depth Summary
  ******************
  
  ---------------------------------------------------------------------------------
                                 Average  Maximum  Maximum  Time of Max    Reported
                                   Depth    Depth      HGL   Occurrence   Max Depth
  Node                 Type         Feet     Feet     Feet  days hr:min        Feet
  ---------------------------------------------------------------------------------
  3                    JUNCTION     1.80     2.70   575.46     0  20:17        2.70
  4                    JUNCTION     2.34     3.90   573.66     0  20:20        3.90
  5                    JUNCTION     3.11     5.27   572.03     0  20:16        5.27
  1503                 JUNCTION     1.31     2.89   584.45     0  18:08        2.89
  1504                 JUNCTION     2.36     4.73   586.39     0  18:07        4.73
  1515                 JUNCTION     2.24     4.19   591.45     0  18:03        4.19
  1516                 JUNCTION     2.50     4.78   592.14     0  18:04        4.78
  1545                 JUNCTION     2.13     3.96   598.32     0  17:47        3.96
  1952                 JUNCTION     1.61     3.44   589.80     0  17:52        3.43
  2142                 JUNCTION     1.08     2.12   573.88     0  11:22        2.09
  2145                 JUNCTION     2.46     4.12   576.58     0  20:11        4.12
  2170                 JUNCTION     1.96     4.33   583.19     0  19:05        4.33
  2185                 JUNCTION     1.79     3.87   589.13     0  18:47        3.87
  2195                 JUNCTION     1.90     4.00   595.36     0  18:33        4.00
  2201                 JUNCTION     1.52     3.27   599.83     0  18:24        3.26
  2351                 JUNCTION     2.56     3.36   608.02     0  18:50        3.36
  2355                 JUNCTION     2.49     3.45   608.21     0  18:46        3.45
  2360                 JUNCTION     1.34     2.80   609.26     0  18:36        2.79
  2455                 JUNCTION     1.78     1.92   591.68     4  02:09        1.92
  2525                 JUNCTION     1.05     2.37   609.93     0  18:27        2.37
  2545                 JUNCTION     0.29     0.63   613.49     0  18:06        0.63
  2745                 JUNCTION     2.41     3.61   584.47     0  20:12        3.61
  2765                 JUNCTION     2.69     4.10   587.56     0  19:57        4.10
  2770                 JUNCTION     2.45     3.89   588.75     0  19:22        3.89
  2775                 JUNCTION     2.35     3.43   590.59     0  19:25        3.43
  15031                JUNCTION     2.07     3.71   585.37     0  18:07        3.71
  15032                JUNCTION     2.38     4.78   586.44     0  18:08        4.77
  15163                JUNCTION     2.56     4.87   592.18     0  18:05        4.87
  15164                JUNCTION     2.42     4.38   591.69     0  18:03        4.38
  19521                JUNCTION     1.65     3.46   589.77     0  17:53        3.45
  19523                JUNCTION     1.61     3.36   589.67     0  17:59        3.36
  21450                JUNCTION     2.32     3.70   576.16     0  11:20        3.68
  21453                JUNCTION     2.45     4.11   576.57     0  11:22        4.09
  21454                JUNCTION     2.41     3.88   576.34     0  20:11        3.88
  21700                JUNCTION     1.88     4.08   582.84     0  19:06        4.07
  21703                JUNCTION     1.97     4.18   582.99     0  19:06        4.17
  21704                JUNCTION     2.02     4.41   583.22     0  19:05        4.41
  21850                JUNCTION     1.83     3.90   589.11     0  18:48        3.89
  21852                JUNCTION     1.55     3.32   588.48     0  18:51        3.31
  21859                JUNCTION     1.79     3.61   588.82     0  18:49        3.61
  21950                JUNCTION     1.53     3.29   594.55     0  18:37        3.29
  21953                JUNCTION     1.94     4.02   595.33     0  18:33        4.02
  21954                JUNCTION     1.90     3.76   595.07     0  18:34        3.76
  22201                JUNCTION     1.10     2.48   606.34     0  18:20        2.48
  22202                JUNCTION     0.95     2.08   605.84     0  18:23        2.08
  22203                JUNCTION     1.15     2.51   606.32     0  18:21        2.51
  22204                JUNCTION     1.11     2.27   606.08     0  18:22        2.27
  23553                JUNCTION     2.53     3.47   608.18     0  18:46        3.47
  23554                JUNCTION     2.52     3.39   608.10     0  18:48        3.39
  25250                JUNCTION     0.79     1.75   606.31     0  18:47        1.75
  25251                JUNCTION     0.39     0.84   605.30     0  18:48        0.84
  25253                JUNCTION     0.85     1.81   606.32     0  18:48        1.81
  25254                JUNCTION     0.80     1.54   606.05     0  18:48        1.54
  27453                JUNCTION     2.36     3.40   584.21     0  20:12        3.40
  27454                JUNCTION     2.44     3.64   584.45     0  20:12        3.64
  RC11535              JUNCTION     0.48     1.13   939.29     0  16:45        1.13
  RC11545              JUNCTION     0.52     1.27   972.83     0  16:45        1.27
  RC11550              JUNCTION     0.23     0.61   801.57     0  16:20        0.61
  RC11570              JUNCTION     0.50     1.25   971.47     0  16:45        1.25
  RC11571              JUNCTION     0.65     1.59  1088.15     0  17:47        1.59
  RC12200              JUNCTION     0.64     1.46  1054.02     0  17:46        1.46
  RC12201              JUNCTION     0.06     0.21   759.37     0  17:15        0.21
  RC12315              JUNCTION     0.46     0.51   980.04     1  01:00        0.51
  RC12345              JUNCTION     0.38     0.42   913.98     1  01:00        0.42
  RC12350              JUNCTION     0.47     0.51  1010.21     5  01:00        0.51
  RC12355              JUNCTION     0.62     1.38  1092.43     0  17:47        1.38
  RC12389              JUNCTION     0.44     1.02   990.48     0  17:46        1.02
  RC12397              JUNCTION     0.47     1.13   878.49     0  17:16        1.13
  RC12520              JUNCTION     0.41     1.00   908.67     0  17:16        1.00
  RC12521              JUNCTION     0.08     0.26   752.22     0  17:15        0.26
  RC12765              JUNCTION     0.28     0.31   841.27     5  01:00        0.31
  RC12770              JUNCTION     0.10     0.13   742.43     0  00:23        0.13
  RC1951               JUNCTION     0.58     1.45  1015.59     0  16:45        1.45
  RC19523              JUNCTION     0.30     0.85   823.93     0  17:31        0.85
  RC3214500            JUNCTION     0.19     1.56   789.71     0  10:46        1.55
  RC32160              JUNCTION     0.32     0.82   827.54     0  16:25        0.82
  1                    OUTFALL      2.88     5.00   568.76     0  20:18        5.00
  1502                 STORAGE      1.01     1.84   580.22     0  18:10        1.84
  1535                 STORAGE      2.36     4.35   595.91     0  17:55        4.35
  1550                 STORAGE      1.82     3.29   600.75     0  18:45        3.29
  1570                 STORAGE      2.03     4.06   605.42     0  18:33        4.06
  19520                STORAGE      1.44     3.31   589.57     0  18:02        3.31
  2160                 STORAGE      2.11     4.07   580.53     0  19:48        4.07
  2200                 STORAGE      0.45     1.16   618.02     0  18:11        1.16
  2315                 STORAGE      1.10     1.18   600.24     3  01:44        1.18
  2350                 STORAGE      2.60     3.18   607.74     0  19:14        3.18
  2389                 STORAGE      0.68     1.49   621.85     0  18:14        1.49
  2740                 STORAGE      0.93     1.38   581.74     0  20:14        1.38
  27450                STORAGE      2.16     3.10   583.86     0  20:13        3.10
  
  
  *******************
  Node Inflow Summary
  *******************
  
  -------------------------------------------------------------------------------------------------
                                  Maximum  Maximum                  Lateral       Total        Flow
                                  Lateral    Total  Time of Max      Inflow      Inflow     Balance
                                   Inflow   Inflow   Occurrence      Volume      Volume       Error
  Node                 Type           CFS      CFS  days hr:min    10^6 gal    10^6 gal     Percent
  -------------------------------------------------------------------------------------------------
  3                    JUNCTION      0.00   159.13     0  20:14           0         277       0.066
  4                    JUNCTION      0.00   335.45     0  20:16           0         481       0.099
  5                    JUNCTION      0.00   620.13     0  20:14           0         870       0.078
  1503                 JUNCTION      0.00   332.39     0  18:08           0         384       0.035
  1504                 JUNCTION      0.00   332.61     0  18:02           0         384       0.135
  1515                 JUNCTION      1.32   271.15     0  17:45        5.12         309       0.412
  1516                 JUNCTION      0.00   236.50     0  17:55           0         285       0.147
  1545                 JUNCTION      3.41   214.69     0  16:46        13.2         234       1.109
  1952                 JUNCTION      3.61   114.25     0  16:45          14        79.3       2.529
  2142                 JUNCTION      0.00   176.33     0  20:14           0         204       0.028
  2145                 JUNCTION      0.00   243.89     0  10:51           0         206       0.899
  2170                 JUNCTION      0.00   177.95     0  18:51           0         153       0.161
  2185                 JUNCTION      0.00   179.89     0  18:37           0         154       0.304
  2195                 JUNCTION      0.00   181.39     0  18:24           0         155       0.335
  2201                 JUNCTION      0.00   182.01     0  18:17           0         155       0.171
  2351                 JUNCTION      0.00    79.06     0  18:42           0        84.8       0.105
  2355                 JUNCTION      3.81    79.50     0  18:36        14.8        85.2       1.313
  2360                 JUNCTION      0.00    97.84     0  17:47           0        72.3       2.746
  2455                 JUNCTION      0.00    24.93     3  01:00           0        82.7       2.458
  2525                 JUNCTION      0.00    57.01     0  17:47           0          36       2.346
  2545                 JUNCTION      0.00     4.53     0  17:15           0        2.94       1.062
  2745                 JUNCTION      0.00   156.42     0  20:01           0         266       0.309
  2765                 JUNCTION      1.20   161.90     0  19:19        4.65         269       1.028
  2770                 JUNCTION      0.26   157.38     0  19:07        1.01         250       0.285
  2775                 JUNCTION      0.00   112.99     0  19:14           0         211       0.207
  15031                JUNCTION      0.00   332.27     0  18:07           0         384       0.035
  15032                JUNCTION      0.00    22.86     0  11:00           0      0.0191     263.946
  15163                JUNCTION      0.00    21.93     0  11:01           0      0.0145     183.138
  15164                JUNCTION      0.00   236.04     0  18:06           0         285       0.068
  19521                JUNCTION      0.00     0.45     0  00:33           0       0.008    5613.482
  19523                JUNCTION      0.00    73.84     0  17:02           0        77.3       0.029
  21450                JUNCTION      0.00   176.31     0  20:11           0         204       0.071
  21453                JUNCTION      0.00    36.89     0  10:51           0      0.0587      84.160
  21454                JUNCTION      0.00   176.28     0  20:10           0         204      -0.006
  21700                JUNCTION      0.00   175.33     0  19:02           0         153       0.167
  21703                JUNCTION      0.00   175.59     0  19:01           0         153       0.158
  21704                JUNCTION      0.00    25.42     0  11:31           0       0.127      72.765
  21850                JUNCTION      0.00    30.96     0  11:23           0       0.213      29.696
  21852                JUNCTION      0.00   178.41     0  18:46           0         154       0.129
  21859                JUNCTION      0.00   178.42     0  18:45           0         153      -0.045
  21950                JUNCTION      0.00   180.27     0  18:32           0         154       0.127
  21953                JUNCTION      0.00    28.52     0  11:07           0       0.131      28.536
  21954                JUNCTION      0.00   180.48     0  18:30           0         154      -0.064
  22201                JUNCTION      0.00    79.86     0  18:14           0        64.4       0.162
  22202                JUNCTION      0.00    79.68     0  18:19           0        64.2       0.136
  22203                JUNCTION      0.00    18.13     0  11:06           0       0.087      15.237
  22204                JUNCTION      0.00    79.64     0  18:19           0        64.2       0.011
  23553                JUNCTION      0.00    16.12     0  10:57           0      0.0137     381.527
  23554                JUNCTION      0.00    79.26     0  18:41           0        84.1      -0.902
  25250                JUNCTION      0.00    47.36     0  18:32           0        38.6       0.463
  25251                JUNCTION      0.00    46.32     0  18:48           0        38.4       0.010
  25253                JUNCTION      0.00     5.41     0  11:13           0       0.014      79.525
  25254                JUNCTION      0.00    46.32     0  18:47           0        38.4       0.039
  27453                JUNCTION      0.00   156.04     0  20:11           0         265      -0.023
  27454                JUNCTION      0.00    25.44     0  11:16           0      0.0986      23.017
  RC11535              JUNCTION     83.47    83.47     0  16:15        45.3        45.3       0.262
  RC11545              JUNCTION    104.75   104.75     0  16:15        52.1        52.1       0.301
  RC11550              JUNCTION     25.18    25.18     0  16:15        12.8        12.8       0.039
  RC11570              JUNCTION    101.97   101.97     0  16:15        49.1        49.1       0.261
  RC11571              JUNCTION    148.69   148.69     0  17:15        83.9        83.9       0.416
  RC12200              JUNCTION    111.28   111.28     0  17:00          71          71       0.495
  RC12201              JUNCTION      3.33     3.33     0  17:00           2           2      -0.152
  RC12315              JUNCTION     11.96    11.96     0  00:00          38          38       0.625
  RC12345              JUNCTION      8.54     8.54     0  00:00        27.1        27.1       0.431
  RC12350              JUNCTION     12.08    12.08     0  00:00        38.4        38.4       0.706
  RC12355              JUNCTION    110.01   110.01     0  17:00        72.7        72.7       0.427
  RC12389              JUNCTION     59.74    59.74     0  17:15        36.3        36.3       0.371
  RC12397              JUNCTION     34.10    34.10     0  17:15        20.9        20.9       0.356
  RC12520              JUNCTION     58.05    58.05     0  17:15        33.1        33.1       0.162
  RC12521              JUNCTION      4.57     4.57     0  17:00        2.93        2.93      -0.070
  RC12765              JUNCTION      4.76     4.76     0  00:00        15.1        15.1       0.380
  RC12770              JUNCTION      1.10     1.10     0  00:00        3.49        3.49       0.073
  RC1951               JUNCTION    138.05   138.05     0  16:15        65.5        65.5       0.317
  RC19523              JUNCTION     46.74    46.74     0  17:30        19.2        19.2       0.071
  RC3214500            JUNCTION    184.67   184.67     0  10:45        13.8        13.8      -0.339
  RC32160              JUNCTION     44.59    44.59     0  16:15        21.9        21.9       0.191
  1                    OUTFALL       0.00   620.12     0  20:18           0         870       0.000
  1502                 STORAGE       1.65   334.05     0  18:09         6.4         390       0.026
  1535                 STORAGE       2.93   250.43     0  16:48        11.4         288       1.038
  1550                 STORAGE       0.77   150.23     0  18:32        2.99         170       0.576
  1570                 STORAGE       7.00   200.14     0  17:17        27.1         160       3.577
  19520                STORAGE       0.00   332.76     0  17:57           0         385       0.079
  2160                 STORAGE       5.16   188.96     0  19:13          20         194       0.999
  2200                 STORAGE       4.80   110.15     0  17:47        18.6        91.3       0.446
  2315                 STORAGE       4.95    16.82     1  01:00        19.2        56.9       2.124
  2350                 STORAGE       2.84    92.79     0  18:42          11         134       2.721
  2389                 STORAGE       2.06    87.80     0  17:46        7.99          65       1.072
  2740                 STORAGE       3.04   159.14     0  20:14        11.8         277       0.011
  27450                STORAGE       0.00   156.10     0  20:12           0         265       0.037
  
  
  **********************
  Node Surcharge Summary
  **********************
  
  No nodes were surcharged.
  
  
  *********************
  Node Flooding Summary
  *********************
  
  No nodes were flooded.
  
  
  **********************
  Storage Volume Summary
  **********************
  
  --------------------------------------------------------------------------------------------------
                         Average     Avg  Evap Exfil       Maximum     Max    Time of Max    Maximum
                          Volume    Pcnt  Pcnt  Pcnt        Volume    Pcnt     Occurrence    Outflow
  Storage Unit          1000 ft3    Full  Loss  Loss      1000 ft3    Full    days hr:min        CFS
  --------------------------------------------------------------------------------------------------
  1502                     0.921       0     0     0         1.740       0       0  18:10     334.04
  1535                     1.155       0     0     0         2.308       0       0  17:55     236.49
  1550                     0.879       0     0     0         1.692       0       0  18:45     149.05
  1570                     1.850       0     0     0         3.854       0       0  18:33     143.13
  19520                    1.319       0     0     0         3.186       0       0  18:02     332.61
  2160                     1.894       0     0     0         3.748       0       0  19:48     178.85
  2200                     9.844       0     0     0        25.582       0       0  18:11     102.81
  2315                     4.802       0     0     0         5.154       0       3  01:44      16.50
  2350                    25.991       7     0     0        31.757       9       0  19:14      89.06
  2389                     0.314       0     0     0         0.725       0       0  18:14      79.86
  2740                     4.209       0     0     0         6.385       0       0  20:14     159.13
  27450                    5.855       0     0     0         9.063       0       0  20:13     156.10
  
  
  ***********************
  Outfall Loading Summary
  ***********************
  
  -------------------------------------------------------------------------
                         Flow       Avg       Max       Total         Total
                         Freq      Flow      Flow      Volume           TSS
  Outfall Node           Pcnt       CFS       CFS    10^6 gal           lbs
  -------------------------------------------------------------------------
  1                    100.00    224.30    620.12     869.726    920745.745
  -------------------------------------------------------------------------
  System               100.00    224.30    620.12     869.726    920745.745
  
  
  ********************
  Link Flow Summary
  ********************
  
  -----------------------------------------------------------------------------
                                 Maximum  Time of Max   Maximum    Max/    Max/
                                  |Flow|   Occurrence   |Veloc|    Full    Full
  Link                 Type          CFS  days hr:min    ft/sec    Flow   Depth
  -----------------------------------------------------------------------------
  1503                 CONDUIT    332.40     0  18:09     10.48    0.16    0.18
  1509                 CONDUIT    332.61     0  18:02      6.18    0.19    0.30
  1515                 CONDUIT    267.60     0  18:06      8.10    0.23    0.27
  1535                 CONDUIT    236.49     0  17:55      5.46    0.21    0.33
  1545                 CONDUIT    197.08     0  17:47      5.15    0.17    0.30
  1550                 CONDUIT    149.05     0  18:45      6.88    0.20    0.26
  1570                 CONDUIT    143.13     0  18:36      5.01    0.24    0.32
  2160                 CONDUIT    178.85     0  19:36      4.54    0.15    0.26
  2201                 CONDUIT    181.39     0  18:24      5.41    0.10    0.23
  2202                 CONDUIT    102.81     0  18:11      6.71    0.22    0.29
  2219                 CONDUIT     79.57     0  18:23      3.88    0.05    0.19
  2349                 CONDUIT     89.06     0  19:14      5.21    0.15    0.22
  2355                 CONDUIT     78.98     0  18:43      3.27    0.29    0.28
  2360                 CONDUIT     75.69     0  18:36      3.32    0.13    0.27
  2388                 CONDUIT     79.86     0  18:14      6.48    0.03    0.16
  2425                 CONDUIT     16.50     3  01:44      2.32    0.02    0.14
  2455                 CONDUIT     24.56     3  02:09      3.39    0.09    0.18
  2525                 CONDUIT     46.37     0  18:32      3.89    0.09    0.20
  2545                 CONDUIT      3.70     0  18:06      0.69    0.01    0.14
  2765                 CONDUIT    156.42     0  20:01      4.28    0.15    0.25
  2770                 CONDUIT    156.39     0  19:19      4.13    0.14    0.26
  2775                 CONDUIT    112.70     0  19:25      3.31    0.11    0.24
  21450                CONDUIT    176.33     0  20:14      7.39    0.17    0.19
  21700                CONDUIT    175.33     0  19:10      4.50    0.15    0.26
  21853                CONDUIT    177.95     0  18:51      4.98    0.10    0.25
  21950                CONDUIT    179.89     0  18:37      5.49    0.10    0.23
  25253                CONDUIT     46.32     0  18:49      3.25    0.01    0.22
  27450                CONDUIT    156.10     0  20:14      9.26    0.16    0.14
  Branch02             CONDUIT    334.04     0  18:10     11.08    0.04    0.25
  Branch06             CONDUIT    176.35     0  20:15      7.65    0.03    0.19
  Branch11a            CONDUIT    159.13     0  20:14     10.62    0.02    0.13
  ISD002_damDOWN       CONDUIT    332.39     0  18:08     11.65    0.39    0.22
  ISD002_damUP         CONDUIT      0.00     0  00:00      0.00    0.00    0.00
  ISD003_damDOWN       CONDUIT     73.55     0  17:02      4.23    0.45    0.37
  ISD003_damUP         CONDUIT      0.00     0  00:00      0.00    0.00    0.00
  ISD004_damDOWN       CONDUIT    236.17     0  18:06      6.01    0.40    0.31
  ISD004_damUP         CONDUIT      0.00     0  00:00      0.00    0.00    0.00
  ISD006_damDOWN       CONDUIT    176.31     0  20:11      4.96    1.61    0.24
  ISD006_damUP         CONDUIT      0.00     0  00:00      0.00    0.00    0.00
  ISD007_damDOWN       CONDUIT    175.33     0  19:02      4.36    0.25    0.27
  ISD007_damUP         CONDUIT      0.00     0  00:00      0.00    0.00    0.00
  ISD008_damDOWN       CONDUIT    178.41     0  18:46      5.68    0.25    0.22
  ISD008_damUP         CONDUIT      0.00     0  00:00      0.00    0.00    0.00
  ISD009_damDOWN       CONDUIT    180.27     0  18:32      5.59    0.32    0.23
  ISD009_damUP         CONDUIT      0.00     0  00:00      0.00    0.00    0.00
  ISD010_damDOWN       CONDUIT     79.68     0  18:19      5.64    0.14    0.18
  ISD010_damUP         CONDUIT      0.00     0  00:00      0.00    0.00    0.00
  ISD011_damDOWN       CONDUIT    156.10     0  20:12      5.43    0.22    0.21
  ISD011_damUP         CONDUIT      0.00     0  00:00      0.00    0.00    0.00
  ISD012_damDOWN       CONDUIT     46.32     0  18:48      8.52    0.15    0.11
  ISD012_damUP         CONDUIT      0.00     0  00:00      0.00    0.00    0.00
  ISD013_damDOWN       CONDUIT     79.06     0  18:42      3.12    0.23    0.29
  ISD013_damUP         CONDUIT      0.00     0  00:00      0.00    0.00    0.00
  RC11535              CONDUIT     67.58     0  16:45      5.49    0.01    0.13
  RC11545              CONDUIT     84.31     0  16:45      5.54    0.01    0.13
  RC11550              CONDUIT     21.66     0  16:20      4.33    0.00    0.09
  RC11570              CONDUIT     82.33     0  16:45      5.57    0.01    0.12
  RC11571              CONDUIT    131.91     0  17:47      6.34    0.01    0.14
  RC12200              CONDUIT    102.21     0  17:47     12.11    0.01    0.06
  RC12201              CONDUIT      3.29     0  17:15      3.63    0.00    0.03
  RC12315              CONDUIT     11.87     1  01:00      5.28    0.00    0.04
  RC12345              CONDUIT      8.49     1  01:00      6.02    0.00    0.06
  RC12350              CONDUIT     11.94     5  01:00      5.50    0.00    0.09
  RC12355              CONDUIT     97.84     0  17:47      7.32    0.01    0.10
  RC12389              CONDUIT     54.31     0  17:47      7.08    0.01    0.06
  RC12397              CONDUIT     31.58     0  17:16      6.65    0.05    0.17
  RC12520              CONDUIT     53.71     0  17:16      5.81    0.00    0.08
  RC12521              CONDUIT      4.53     0  17:15      3.81    0.00    0.02
  RC12765              CONDUIT      4.72     5  01:00      4.45    0.00    0.11
  RC12770              CONDUIT      1.18     0  00:35      4.44    0.00    0.05
  RC1951               CONDUIT    110.64     0  16:45      6.06    0.01    0.12
  RC19523              CONDUIT     40.79     0  17:31      4.20    0.00    0.12
  RC3214500            CONDUIT    167.99     0  10:46      7.44    0.01    0.14
  RC32160              CONDUIT     37.09     0  16:25      3.77    0.00    0.12
  Trunk02              CONDUIT    620.12     0  20:18     10.35    0.19    0.29
  Trunk06              CONDUIT    335.28     0  20:21      6.56    0.10    0.25
  Trunk11a             CONDUIT    159.11     0  20:18      4.97    0.05    0.18
  ISD002_DOWN          ORIFICE    332.27     0  18:07                      0.32
  ISD002_UP            ORIFICE     22.86     0  11:00                      0.32
  ISD003_DOWN          ORIFICE     73.84     0  17:02                      0.38
  ISD003_UP            ORIFICE      0.45     0  00:33                      0.38
  ISD004_DOWN          ORIFICE    236.04     0  18:06                      0.34
  ISD004_UP            ORIFICE     21.93     0  11:01                      0.34
  ISD006_DOWN          ORIFICE    176.28     0  20:10                      0.27
  ISD006_UP            ORIFICE     36.89     0  10:51                      0.27
  ISD007_DOWN          ORIFICE    175.59     0  19:01                      0.28
  ISD007_UP            ORIFICE     25.42     0  11:31                      0.28
  ISD008_DOWN          ORIFICE    178.42     0  18:45                      0.25
  ISD008_UP            ORIFICE     30.96     0  11:23                      0.25
  ISD009_DOWN          ORIFICE    180.48     0  18:30                      0.26
  ISD009_UP            ORIFICE     28.52     0  11:07                      0.26
  ISD010_DOWN          ORIFICE     79.64     0  18:19                      0.20
  ISD010_UP            ORIFICE     18.15     0  11:04                      0.20
  ISD011_DOWN          ORIFICE    156.04     0  20:11                      0.23
  ISD011_UP            ORIFICE     25.71     0  11:12                      0.23
  ISD012_DOWN          ORIFICE     46.32     0  18:47                      0.17
  ISD012_UP            ORIFICE      5.41     0  11:13                      0.17
  ISD013_DOWN          ORIFICE     79.26     0  18:41                      0.30
  ISD013_UP            ORIFICE     16.12     0  10:57                      0.30
  
  
  ***************************
  Flow Classification Summary
  ***************************
  
  -------------------------------------------------------------------------------------
                      Adjusted    ---------- Fraction of Time in Flow Class ---------- 
                       /Actual         Up    Down  Sub   Sup   Up    Down  Norm  Inlet 
  Conduit               Length    Dry  Dry   Dry   Crit  Crit  Crit  Crit  Ltd   Ctrl  
  -------------------------------------------------------------------------------------
  1503                    1.00   0.00  0.01  0.00  0.84  0.15  0.00  0.00  0.02  0.00
  1509                    1.00   0.00  0.00  0.00  1.00  0.00  0.00  0.00  0.99  0.00
  1515                    1.00   0.00  0.00  0.00  0.68  0.32  0.00  0.00  0.00  0.00
  1535                    1.00   0.00  0.00  0.00  1.00  0.00  0.00  0.00  0.97  0.00
  1545                    1.00   0.00  0.00  0.00  1.00  0.00  0.00  0.00  1.00  0.00
  1550                    1.00   0.00  0.00  0.00  0.00  0.00  0.00  1.00  0.00  0.00
  1570                    1.00   0.00  0.00  0.00  1.00  0.00  0.00  0.00  0.00  0.00
  2160                    1.00   0.00  0.00  0.00  1.00  0.00  0.00  0.00  0.95  0.00
  2201                    1.00   0.00  0.00  0.00  1.00  0.00  0.00  0.00  0.99  0.00
  2202                    1.00   0.00  0.00  0.00  0.00  0.00  0.00  1.00  0.00  0.00
  2219                    1.00   0.00  0.00  0.00  1.00  0.00  0.00  0.00  1.00  0.00
  2349                    1.00   0.04  0.00  0.00  0.00  0.00  0.00  0.96  0.00  0.00
  2355                    1.00   0.00  0.00  0.00  1.00  0.00  0.00  0.00  0.00  0.00
  2360                    1.00   0.00  0.00  0.00  1.00  0.00  0.00  0.00  1.00  0.00
  2388                    1.00   0.00  0.00  0.00  0.97  0.03  0.00  0.00  0.99  0.00
  2425                    1.00   0.00  0.00  0.00  1.00  0.00  0.00  0.00  0.98  0.00
  2455                    1.00   0.00  0.00  0.00  0.03  0.00  0.00  0.97  0.00  0.00
  2525                    1.00   0.00  0.00  0.00  1.00  0.00  0.00  0.00  0.00  0.00
  2545                    1.00   0.00  0.00  0.00  1.00  0.00  0.00  0.00  1.00  0.00
  2765                    1.00   0.00  0.00  0.00  1.00  0.00  0.00  0.00  0.00  0.00
  2770                    1.00   0.00  0.00  0.00  1.00  0.00  0.00  0.00  0.88  0.00
  2775                    1.00   0.00  0.00  0.00  1.00  0.00  0.00  0.00  1.00  0.00
  21450                   1.00   0.00  0.00  0.00  1.00  0.00  0.00  0.00  0.00  0.00
  21700                   1.00   0.00  0.01  0.00  0.99  0.00  0.00  0.00  0.96  0.00
  21853                   1.00   0.00  0.00  0.00  1.00  0.00  0.00  0.00  0.97  0.00
  21950                   1.00   0.00  0.00  0.00  1.00  0.00  0.00  0.00  0.98  0.00
  25253                   1.00   0.00  0.00  0.00  0.99  0.01  0.00  0.00  1.00  0.00
  27450                   1.00   0.00  0.00  0.00  0.06  0.94  0.00  0.00  0.02  0.00
  Branch02                1.00   0.00  0.00  0.00  0.77  0.23  0.00  0.00  1.00  0.00
  Branch06                1.00   0.00  0.00  0.00  1.00  0.00  0.00  0.00  0.96  0.00
  Branch11a               1.00   0.00  0.00  0.00  0.00  1.00  0.00  0.00  1.00  0.00
  ISD002_damDOWN          1.00   0.00  0.00  0.00  0.01  0.98  0.00  0.00  0.00  0.00
  ISD002_damUP            1.00   1.00  0.00  0.00  0.00  0.00  0.00  0.00  0.00  0.00
  ISD003_damDOWN          1.00   0.00  0.00  0.00  0.98  0.02  0.00  0.00  0.00  0.00
  ISD003_damUP            1.00   1.00  0.00  0.00  0.00  0.00  0.00  0.00  0.00  0.00
  ISD004_damDOWN          1.00   0.00  0.00  0.00  1.00  0.00  0.00  0.00  0.00  0.00
  ISD004_damUP            1.00   1.00  0.00  0.00  0.00  0.00  0.00  0.00  0.00  0.00
  ISD006_damDOWN          1.00   0.00  0.00  0.00  1.00  0.00  0.00  0.00  0.00  0.00
  ISD006_damUP            1.00   1.00  0.00  0.00  0.00  0.00  0.00  0.00  0.00  0.00
  ISD007_damDOWN          1.00   0.00  0.00  0.00  1.00  0.00  0.00  0.00  0.00  0.00
  ISD007_damUP            1.00   1.00  0.00  0.00  0.00  0.00  0.00  0.00  0.00  0.00
  ISD008_damDOWN          1.00   0.00  0.00  0.00  1.00  0.00  0.00  0.00  0.00  0.00
  ISD008_damUP            1.00   1.00  0.00  0.00  0.00  0.00  0.00  0.00  0.00  0.00
  ISD009_damDOWN          1.00   0.00  0.00  0.00  1.00  0.00  0.00  0.00  0.00  0.00
  ISD009_damUP            1.00   1.00  0.00  0.00  0.00  0.00  0.00  0.00  0.00  0.00
  ISD010_damDOWN          1.00   0.00  0.00  0.00  1.00  0.00  0.00  0.00  0.00  0.00
  ISD010_damUP            1.00   1.00  0.00  0.00  0.00  0.00  0.00  0.00  0.00  0.00
  ISD011_damDOWN          1.00   0.00  0.00  0.00  1.00  0.00  0.00  0.00  0.00  0.00
  ISD011_damUP            1.00   1.00  0.00  0.00  0.00  0.00  0.00  0.00  0.00  0.00
  ISD012_damDOWN          1.00   0.00  0.00  0.00  0.02  0.98  0.00  0.00  0.00  0.00
  ISD012_damUP            1.00   1.00  0.00  0.00  0.00  0.00  0.00  0.00  0.00  0.00
  ISD013_damDOWN          1.00   0.00  0.00  0.00  1.00  0.00  0.00  0.00  0.00  0.00
  ISD013_damUP            1.00   1.00  0.00  0.00  0.00  0.00  0.00  0.00  0.00  0.00
  RC11535                 1.00   0.00  0.00  0.00  0.99  0.01  0.00  0.00  0.99  0.00
  RC11545                 1.00   0.00  0.00  0.00  0.99  0.01  0.00  0.00  0.99  0.00
  RC11550                 1.00   0.00  0.00  0.00  0.99  0.01  0.00  0.00  1.00  0.00
  RC11570                 1.00   0.00  0.00  0.00  0.99  0.01  0.00  0.00  0.99  0.00
  RC11571                 1.00   0.00  0.00  0.00  0.98  0.02  0.00  0.00  0.99  0.00
  RC12200                 1.00   0.00  0.00  0.00  0.00  1.00  0.00  0.00  0.00  0.00
  RC12201                 1.00   0.00  0.00  0.00  1.00  0.00  0.00  0.00  1.00  0.00
  RC12315                 1.00   0.00  0.00  0.00  0.98  0.02  0.00  0.00  0.99  0.00
  RC12345                 1.00   0.00  0.00  0.00  0.99  0.01  0.00  0.00  0.99  0.00
  RC12350                 1.00   0.00  0.00  0.00  0.99  0.01  0.00  0.00  0.99  0.00
  RC12355                 1.00   0.00  0.00  0.00  0.96  0.04  0.00  0.00  0.98  0.00
  RC12389                 1.00   0.00  0.00  0.00  0.72  0.28  0.00  0.00  0.99  0.00
  RC12397                 1.00   0.00  0.00  0.00  0.93  0.07  0.00  0.00  0.98  0.00
  RC12520                 1.00   0.00  0.00  0.00  0.97  0.03  0.00  0.00  0.99  0.00
  RC12521                 1.00   0.00  0.00  0.00  0.99  0.01  0.00  0.00  1.00  0.00
  RC12765                 1.00   0.00  0.00  0.00  0.99  0.01  0.00  0.00  0.99  0.00
  RC12770                 1.00   0.00  0.00  0.00  0.99  0.01  0.00  0.00  1.00  0.00
  RC1951                  1.00   0.00  0.00  0.00  0.97  0.03  0.00  0.00  0.99  0.00
  RC19523                 1.00   0.00  0.00  0.00  0.99  0.01  0.00  0.00  1.00  0.00
  RC3214500               1.00   0.00  0.00  0.00  0.99  0.01  0.00  0.00  0.99  0.00
  RC32160                 1.00   0.00  0.00  0.00  0.99  0.01  0.00  0.00  1.00  0.00
  Trunk02                 1.00   0.00  0.00  0.00  0.99  0.01  0.00  0.00  0.00  0.00
  Trunk06                 1.00   0.00  0.00  0.00  1.00  0.00  0.00  0.00  1.00  0.00
  Trunk11a                1.00   0.00  0.00  0.00  1.00  0.00  0.00  0.00  0.99  0.00
  
  
  *************************
  Conduit Surcharge Summary
  *************************
  
  ----------------------------------------------------------------------------
                                                           Hours        Hours 
                         --------- Hours Full --------   Above Full   Capacity
  Conduit                Both Ends  Upstream  Dnstream   Normal Flow   Limited
  ----------------------------------------------------------------------------
  ISD006_damDOWN              0.01      0.01      0.01     13.40         0.01
  
  
  ***************************
  Link Pollutant Load Summary
  ***************************
  
  ----------------------------------
                                 TSS
  Link                           lbs
  ----------------------------------
  1503                     3.882e+05
  1509                     3.894e+05
  1515                     3.110e+05
  1535                     2.904e+05
  1545                     2.359e+05
  1550                     1.736e+05
  1570                     1.586e+05
  2160                     1.963e+05
  2201                     1.723e+05
  2202                     9.827e+04
  2219                     7.447e+04
  2349                     1.539e+05
  2355                     9.384e+04
  2360                     9.431e+04
  2388                     7.503e+04
  2425                     6.271e+04
  2455                     1.061e+05
  2525                     4.503e+04
  2545                      3772.818
  2765                     3.309e+05
  2770                     3.088e+05
  2775                     2.592e+05
  21450                    2.051e+05
  21700                    1.692e+05
  21853                    1.704e+05
  21950                    1.714e+05
  25253                    5.056e+04
  27450                    3.297e+05
  Branch02                 3.881e+05
  Branch06                 2.050e+05
  Branch11a                3.296e+05
  ISD002_damDOWN           3.884e+05
  ISD002_damUP                 0.000
  ISD003_damDOWN           7.882e+04
  ISD003_damUP                 0.000
  ISD004_damDOWN           2.896e+05
  ISD004_damUP                 0.000
  ISD006_damDOWN           2.053e+05
  ISD006_damUP                 0.000
  ISD007_damDOWN           1.699e+05
  ISD007_damUP                 0.000
  ISD008_damDOWN           1.710e+05
  ISD008_damUP                 0.000
  ISD009_damDOWN           1.719e+05
  ISD009_damUP                 0.000
  ISD010_damDOWN           7.476e+04
  ISD010_damUP                 0.000
  ISD011_damDOWN           3.299e+05
  ISD011_damUP                 0.000
  ISD012_damDOWN           5.058e+04
  ISD012_damUP                 0.000
  ISD013_damDOWN           9.398e+04
  ISD013_damUP                 0.000
  RC11535                  5.886e+04
  RC11545                  6.608e+04
  RC11550                  1.649e+04
  RC11570                  6.203e+04
  RC11571                  1.048e+05
  RC12200                  9.590e+04
  RC12201                   2597.111
  RC12315                  6.407e+04
  RC12345                  4.619e+04
  RC12350                  6.480e+04
  RC12355                  9.683e+04
  RC12389                  4.789e+04
  RC12397                  2.776e+04
  RC12520                  4.234e+04
  RC12521                   3981.404
  RC12765                  2.547e+04
  RC12770                   5808.722
  RC1951                   8.256e+04
  RC19523                  2.350e+04
  RC3214500                1.066e+04
  RC32160                  2.880e+04
  Trunk02                  9.207e+05
  Trunk06                  5.336e+05
  Trunk11a                 3.293e+05
  ISD002_DOWN              3.886e+05
  ISD002_UP                   18.251
  ISD003_DOWN              7.885e+04
  ISD003_UP                    6.837
  ISD004_DOWN              2.898e+05
  ISD004_UP                   13.907
  ISD006_DOWN              2.053e+05
  ISD006_UP                   31.096
  ISD007_DOWN              1.702e+05
  ISD007_UP                   87.266
  ISD008_DOWN              1.709e+05
  ISD008_UP                  114.205
  ISD009_DOWN              1.718e+05
  ISD009_UP                   74.149
  ISD010_DOWN              7.478e+04
  ISD010_UP                   46.016
  ISD011_DOWN              3.299e+05
  ISD011_UP                  109.556
  ISD012_DOWN              5.060e+04
  ISD012_UP                   11.579
  ISD013_DOWN              9.295e+04
  ISD013_UP                    7.164
  

  Analysis begun on:  Tue Jan 22 17:30:56 2019
  Analysis ended on:  Tue Jan 22 17:31:00 2019
  Total elapsed time: 00:00:04