
  EPA STORM WATER MANAGEMENT MODEL - VERSION 5.1 (Build 5.2.0.dev4)
  --------------------------------------------------------------

  
  **********************           Volume        Volume
  Rainfall Dependent I/I        acre-feet      10^6 gal
  **********************        ---------     ---------
  Sewershed Rainfall ......        80.791        26.327
  RDII Produced ...........        11.063         3.605
  RDII Ratio ..............         0.137
  
  
  *********************************************************
  NOTE: The summary statistics displayed in this report are
  based on results found at every computational time step,  
  not just on results from each reporting time step.
  *********************************************************
  
  ****************
  Analysis Options
  ****************
  Flow Units ............... CFS
  Process Models:
    Rainfall/Runoff ........ YES
    RDII ................... YES
    Snowmelt ............... NO
    Groundwater ............ NO
    Flow Routing ........... YES
    Ponding Allowed ........ YES
    Water Quality .......... YES
  Infiltration Method ...... GREEN_AMPT
  Flow Routing Method ...... DYNWAVE
  Starting Date ............ 07/05/2014 12:00:00
  Ending Date .............. 07/10/2014 00:05:00
  Antecedent Dry Days ...... 5.0
  Report Time Step ......... 00:01:00
  Wet Time Step ............ 00:01:00
  Dry Time Step ............ 00:01:00
  Routing Time Step ........ 60.00 sec
  Variable Time Step ....... YES
  Maximum Trials ........... 8
  Number of Threads ........ 1
  Head Tolerance ........... 0.005000 ft
  
  
  **************************        Volume         Depth
  Runoff Quantity Continuity     acre-feet        inches
  **************************     ---------       -------
  Total Precipitation ......        59.003         3.438
  Evaporation Loss .........         0.000         0.000
  Infiltration Loss ........        18.840         1.098
  Surface Runoff ...........        39.544         2.304
  Final Storage ............         0.633         0.037
  Continuity Error (%) .....        -0.023
  
  
  **************************           TSS
  Runoff Quality Continuity            lbs
  **************************    ----------
  Initial Buildup ..........      3394.520
  Surface Buildup ..........      2271.362
  Wet Deposition ...........         0.000
  Sweeping Removal .........         0.000
  Infiltration Loss ........         0.000
  BMP Removal ..............         0.000
  Surface Runoff ...........      2338.222
  Remaining Buildup ........      3327.659
  Continuity Error (%) .....         0.000
  
  
  **************************        Volume        Volume
  Flow Routing Continuity        acre-feet      10^6 gal
  **************************     ---------     ---------
  Dry Weather Inflow .......         0.000         0.000
  Wet Weather Inflow .......        39.513        12.876
  Groundwater Inflow .......         0.000         0.000
  RDII Inflow ..............        11.064         3.605
  External Inflow ..........         0.000         0.000
  External Outflow .........        28.432         9.265
  Flooding Loss ............         5.863         1.910
  Evaporation Loss .........         0.000         0.000
  Exfiltration Loss ........         0.000         0.000
  Initial Stored Volume ....         0.000         0.000
  Final Stored Volume ......        16.350         5.328
  Continuity Error (%) .....        -0.135
  
  
  **************************           TSS
  Quality Routing Continuity           lbs
  **************************    ----------
  Dry Weather Inflow .......         0.000
  Wet Weather Inflow .......      2336.166
  Groundwater Inflow .......         0.000
  RDII Inflow ..............         0.000
  External Inflow ..........         0.000
  External Outflow .........      1274.989
  Flooding Loss ............       362.130
  Exfiltration Loss ........         0.000
  Mass Reacted .............         0.000
  Initial Stored Mass ......         0.000
  Final Stored Mass ........       706.029
  Continuity Error (%) .....        -0.299
  
  
  *************************
  Highest Continuity Errors
  *************************
  Node 93-49921 (1.10%)
  
  
  ***************************
  Time-Step Critical Elements
  ***************************
  Link C11 (73.44%)
  Link C09 (19.99%)
  Link C22 (4.93%)
  
  
  ********************************
  Highest Flow Instability Indexes
  ********************************
  Link OR47 (16)
  Link C12 (15)
  Link OR43 (3)
  Link C22 (3)
  Link OR34 (2)
  
  
  *************************
  Routing Time Step Summary
  *************************
  Minimum Time Step           :     2.87 sec
  Average Time Step           :    16.07 sec
  Maximum Time Step           :    60.00 sec
  Percent in Steady State     :     0.00
  Average Iterations per Step :     2.04
  Percent Not Converging      :     0.45
  
  
  ***************************
  Subcatchment Runoff Summary
  ***************************
  
  --------------------------------------------------------------------------------------------------------
                            Total      Total      Total      Total      Total       Total     Peak  Runoff
                           Precip      Runon       Evap      Infil     Runoff      Runoff   Runoff   Coeff
  Subcatchment                 in         in         in         in         in    10^6 gal      CFS
  --------------------------------------------------------------------------------------------------------
  102                        3.44       0.00       0.00       1.28       2.13        0.16    10.67   0.619
  103                        3.44       0.00       0.00       1.66       1.76        0.27    20.43   0.511
  115                        3.44       0.00       0.00       1.78       1.64        0.46    23.36   0.477
  120                        3.44       0.00       0.00       1.35       2.06        0.37    25.50   0.598
  1472                       3.44       0.00       0.00       1.02       2.38        0.21    13.14   0.693
  1497                       3.44       0.00       0.00       0.39       3.00        1.22    65.42   0.872
  1499                       3.44       0.00       0.00       0.13       3.25        2.23   110.29   0.945
  1503                       3.44       0.00       0.00       0.72       2.68        0.10     5.64   0.779
  1506                       3.44       0.00       0.00       1.42       1.99        0.55    37.84   0.579
  1570                       3.44       0.00       0.00       1.91       1.51        0.32    25.66   0.438
  1648                       3.44       0.00       0.00       1.60       1.81        0.13     9.50   0.527
  1736                       3.44       0.00       0.00       1.30       2.10        0.86    57.39   0.612
  1780                       3.44       0.00       0.00       1.75       1.67        0.11     7.84   0.485
  54                         3.44       0.00       0.00       0.36       3.02        2.98   157.11   0.879
  57                         3.44       0.00       0.00       2.12       1.30        0.36    19.18   0.378
  62                         3.44       0.00       0.00       1.77       1.64        0.47    38.28   0.478
  93                         3.44       0.00       0.00       1.30       2.11        0.47    32.56   0.612
  94                         3.44       0.00       0.00       1.75       1.67        0.58    47.24   0.486
  97                         3.44       0.00       0.00       1.45       1.96        1.04    74.24   0.569
  
  
  ****************************
  Subcatchment Washoff Summary
  ****************************
  
  ----------------------------------
                                 TSS
  Subcatchment                   lbs
  ----------------------------------
  102                         33.305
  103                         54.400
  115                         93.283
  120                         76.019
  1472                        39.609
  1497                       199.465
  1499                       345.292
  1503                        17.241
  1506                       111.386
  1570                        65.335
  1648                        27.110
  1736                       174.182
  1780                        21.440
  54                         485.803
  57                          72.626
  62                          95.913
  93                          95.583
  94                         117.957
  97                         212.271
  ----------------------------------
  System                    2338.222
  
  
  ******************
  Node Depth Summary
  ******************
  
  ---------------------------------------------------------------------------------
                                 Average  Maximum  Maximum  Time of Max    Reported
                                   Depth    Depth      HGL   Occurrence   Max Depth
  Node                 Type         Feet     Feet     Feet  days hr:min        Feet
  ---------------------------------------------------------------------------------
  J13                  JUNCTION     0.05     0.72   888.89     0  12:20        0.72
  J14                  JUNCTION     0.08     1.00   882.00     0  11:57        1.00
  J15                  JUNCTION     0.17     1.00   872.00     0  11:21        1.00
  J18                  JUNCTION     0.25     1.00   875.22     0  11:56        1.00
  J19                  JUNCTION     0.13     0.22   858.50     1  01:16        0.22
  J22                  JUNCTION     0.03     0.32   879.32     0  12:22        0.32
  J23                  JUNCTION     0.09     0.26   868.26     0  14:30        0.26
  J24                  JUNCTION     0.46     0.50   846.50     2  00:15        0.50
  J25                  JUNCTION     0.27     0.31   832.81     3  18:57        0.31
  J26                  JUNCTION     0.41     0.61   822.11     0  12:07        0.61
  ZOF1                 OUTFALL      0.00     0.00   810.00     0  00:00        0.00
  93-49743             STORAGE      1.05     9.61   883.83     0  12:37        9.61
  93-49868             STORAGE      0.18     4.36   892.53     0  12:19        4.36
  93-49919             STORAGE      0.83     3.50   871.50     0  14:30        3.50
  93-49921             STORAGE      6.13     7.71   853.71     2  00:15        7.71
  93-50074             STORAGE      3.11     8.38   866.66     1  01:14        8.38
  93-50076             STORAGE      1.90     2.54   835.04     3  18:57        2.54
  93-50077             STORAGE      1.01     3.13   813.13     0  15:04        3.13
  93-50081             STORAGE      0.76     1.67   823.17     0  12:06        1.67
  93-50225             STORAGE      0.50     5.34   876.34     0  15:52        5.34
  93-90357             STORAGE      0.24     5.27   884.27     0  12:22        5.27
  93-90358             STORAGE      0.25     5.02   886.02     0  12:20        5.02
  
  
  *******************
  Node Inflow Summary
  *******************
  
  -------------------------------------------------------------------------------------------------
                                  Maximum  Maximum                  Lateral       Total        Flow
                                  Lateral    Total  Time of Max      Inflow      Inflow     Balance
                                   Inflow   Inflow   Occurrence      Volume      Volume       Error
  Node                 Type           CFS      CFS  days hr:min    10^6 gal    10^6 gal     Percent
  -------------------------------------------------------------------------------------------------
  J13                  JUNCTION      0.00     4.82     0  12:19           0       0.579       0.012
  J14                  JUNCTION      0.00     7.91     0  12:20           0        1.13      -0.013
  J15                  JUNCTION      0.00     6.53     0  15:52           0        1.64      -0.012
  J18                  JUNCTION      0.00     8.36     0  12:38           0        3.13      -0.001
  J19                  JUNCTION      0.00     3.15     1  01:14           0        4.14      -0.089
  J22                  JUNCTION      0.00     3.01     0  12:22           0       0.485       0.008
  J23                  JUNCTION      0.00     2.37     0  14:30           0        1.91       0.018
  J24                  JUNCTION      0.00     2.77     2  00:15           0        6.65       0.015
  J25                  JUNCTION      0.00     2.39     3  18:57           0        5.39       0.003
  J26                  JUNCTION      0.00     3.81     0  12:06           0        5.47      -0.016
  ZOF1                 OUTFALL       0.00     6.45     0  15:04           0        9.26       0.000
  93-49743             STORAGE     123.97   123.97     0  12:00        3.13        3.13      -0.004
  93-49868             STORAGE      47.24    47.24     0  12:00        0.58       0.579      -0.001
  93-49919             STORAGE      87.39    89.06     0  12:00        1.25         1.9      -0.129
  93-49921             STORAGE     149.01   153.26     0  12:00        4.08        10.1       1.113
  93-50074             STORAGE      97.99   102.84     0  12:00        1.69        4.13      -0.148
  93-50076             STORAGE      19.18    20.63     0  12:00       0.357        7.01       0.089
  93-50077             STORAGE     157.43   160.61     0  12:00        4.01        9.48       0.008
  93-50081             STORAGE       5.64     6.41     0  12:00      0.0974        5.48       0.044
  93-50225             STORAGE      20.43    27.91     0  12:00       0.267        1.64      -0.141
  93-90357             STORAGE      36.33    36.33     0  12:00       0.485       0.485       0.000
  93-90358             STORAGE      37.84    41.94     0  12:00       0.548        1.13      -0.007
  
  
  **********************
  Node Surcharge Summary
  **********************
  
  Surcharging occurs when water rises above the top of the highest conduit.
  ---------------------------------------------------------------------
                                               Max. Height   Min. Depth
                                   Hours       Above Crown    Below Rim
  Node                 Type      Surcharged           Feet         Feet
  ---------------------------------------------------------------------
  J14                  JUNCTION        3.82          0.000        0.000
  J15                  JUNCTION        8.66          0.000        0.000
  J18                  JUNCTION       11.20          0.000        0.000
  
  
  *********************
  Node Flooding Summary
  *********************
  
  Flooding refers to all water that overflows a node, whether it ponds or not.
  --------------------------------------------------------------------------
                                                             Total   Maximum
                                 Maximum   Time of Max       Flood    Ponded
                        Hours       Rate    Occurrence      Volume     Depth
  Node                 Flooded       CFS   days hr:min    10^6 gal      Feet
  --------------------------------------------------------------------------
  J14                     3.82      3.21      0  12:29       0.241     0.000
  J15                     8.66      5.56      0  15:50       0.986     0.000
  J18                    11.19      3.82      0  12:46       0.684     0.000
  
  
  **********************
  Storage Volume Summary
  **********************
  
  --------------------------------------------------------------------------------------------------
                         Average     Avg  Evap Exfil       Maximum     Max    Time of Max    Maximum
                          Volume    Pcnt  Pcnt  Pcnt        Volume    Pcnt     Occurrence    Outflow
  Storage Unit          1000 ft3    Full  Loss  Loss      1000 ft3    Full    days hr:min        CFS
  --------------------------------------------------------------------------------------------------
  93-49743                 9.057       3     0     0       126.396      46       0  12:37       8.36
  93-49868                 0.794       1     0     0        35.458      29       0  12:19       4.82
  93-49919                28.976       6     0     0       137.603      30       0  14:30       2.37
  93-49921               626.693      56     0     0       815.898      73       2  00:15       2.77
  93-50074                92.822      13     0     0       295.672      43       1  01:14       3.15
  93-50076               164.795      15     0     0       223.199      20       3  18:57       2.39
  93-50077                75.606       7     0     0       250.573      24       0  15:04       6.45
  93-50081                 0.730       3     0     0         2.400       8       0  12:06       3.81
  93-50225                 4.005       1     0     0        50.962       9       0  15:52       6.53
  93-90357                 1.066       1     0     0        31.406      42       0  12:22       3.01
  93-90358                 0.967       1     0     0        31.407      22       0  12:20       7.91
  
  
  ***********************
  Outfall Loading Summary
  ***********************
  
  -------------------------------------------------------------------------
                         Flow       Avg       Max       Total         Total
                         Freq      Flow      Flow      Volume           TSS
  Outfall Node           Pcnt       CFS       CFS    10^6 gal           lbs
  -------------------------------------------------------------------------
  ZOF1                  99.85      3.35      6.45       9.264      1275.058
  -------------------------------------------------------------------------
  System                99.85      3.35      6.45       9.264      1275.058
  
  
  ********************
  Link Flow Summary
  ********************
  
  -----------------------------------------------------------------------------
                                 Maximum  Time of Max   Maximum    Max/    Max/
                                  |Flow|   Occurrence   |Veloc|    Full    Full
  Link                 Type          CFS  days hr:min    ft/sec    Flow   Depth
  -----------------------------------------------------------------------------
  C08                  CONDUIT      5.39     0  11:56      7.00    0.97    1.00
  C09                  CONDUIT      2.37     0  14:30      7.26    0.15    0.63
  C10                  CONDUIT      2.77     2  00:15      6.41    0.50    0.75
  C11                  CONDUIT      2.39     3  18:57      5.09    0.21    0.60
  C12                  CONDUIT      3.81     0  12:07      6.98    0.68    0.80
  C18                  CONDUIT      4.82     0  12:20      6.73    0.64    0.86
  C19                  CONDUIT      5.67     0  11:56      7.38    0.97    1.00
  C21                  CONDUIT      2.29     0  11:15      3.04    0.98    1.00
  C22                  CONDUIT      3.01     0  12:22      3.57    0.11    0.61
  C95-53307            CONDUIT      3.15     1  01:16     18.71    0.00    0.52
  OR34                 ORIFICE      4.82     0  12:19                          
  OR35                 ORIFICE      7.91     0  12:20                          
  OR36                 ORIFICE      6.53     0  15:52                          
  OR38                 ORIFICE      3.15     1  01:14                          
  OR39                 ORIFICE      8.36     0  12:38                          
  OR43                 ORIFICE      3.01     0  12:22                          
  OR44                 ORIFICE      2.37     0  14:30                          
  OR45                 ORIFICE      2.77     2  00:15                          
  OR46                 ORIFICE      2.39     3  18:57                          
  OR47                 ORIFICE      3.81     0  12:06                          
  OR48                 ORIFICE      6.45     0  15:04                          
  
  
  ***************************
  Flow Classification Summary
  ***************************
  
  -------------------------------------------------------------------------------------
                      Adjusted    ---------- Fraction of Time in Flow Class ---------- 
                       /Actual         Up    Down  Sub   Sup   Up    Down  Norm  Inlet 
  Conduit               Length    Dry  Dry   Dry   Crit  Crit  Crit  Crit  Ltd   Ctrl  
  -------------------------------------------------------------------------------------
  C08                     1.00   0.00  0.00  0.00  0.67  0.33  0.00  0.00  0.84  0.00
  C09                     1.00   0.00  0.00  0.00  0.83  0.17  0.00  0.00  0.98  0.00
  C10                     1.00   0.00  0.00  0.00  0.90  0.09  0.00  0.00  0.89  0.00
  C11                     1.00   0.00  0.00  0.00  0.05  0.95  0.00  0.00  0.99  0.00
  C12                     1.00   0.00  0.00  0.00  0.36  0.64  0.00  0.00  0.58  0.00
  C18                     1.00   0.00  0.00  0.00  0.96  0.04  0.00  0.00  0.40  0.00
  C19                     1.00   0.00  0.32  0.00  0.66  0.01  0.00  0.00  0.94  0.00
  C21                     1.00   0.00  0.00  0.00  0.99  0.01  0.00  0.00  0.82  0.00
  C22                     1.00   0.00  0.48  0.00  0.52  0.00  0.00  0.00  0.99  0.00
  C95-53307               1.00   0.00  0.00  0.00  0.99  0.01  0.00  0.00  0.97  0.00
  
  
  *************************
  Conduit Surcharge Summary
  *************************
  
  ----------------------------------------------------------------------------
                                                           Hours        Hours 
                         --------- Hours Full --------   Above Full   Capacity
  Conduit                Both Ends  Upstream  Dnstream   Normal Flow   Limited
  ----------------------------------------------------------------------------
  C08                        11.19     11.19     59.95      0.01         0.01
  C09                         0.01      0.01     98.07      0.01         0.01
  C10                         0.01      0.01     88.17      0.01         0.01
  C11                         0.01      0.01      0.48      0.01         0.01
  C12                         0.01      0.01     29.02      0.01         0.01
  C18                         0.01      0.01      4.71      0.01         0.01
  C19                         3.82      3.82     11.28      0.01         0.01
  C21                         8.66      8.66     30.25      0.01         0.01
  C22                         0.01      0.01      8.62      0.01         0.01
  C95-53307                   0.01      0.01     54.86      0.01         0.01
  
  
  ***************************
  Link Pollutant Load Summary
  ***************************
  
  ----------------------------------
                                 TSS
  Link                           lbs
  ----------------------------------
  C08                        280.171
  C09                        384.995
  C10                        950.615
  C11                        803.092
  C12                        819.354
  C18                        117.860
  C19                        180.360
  C21                        133.100
  C22                         98.592
  C95-53307                  594.720
  OR34                       117.865
  OR35                       229.185
  OR36                       333.685
  OR38                       574.069
  OR39                       391.968
  OR43                        98.574
  OR44                       385.065
  OR45                       950.563
  OR46                       803.082
  OR47                       819.082
  OR48                      1275.058
  

  Analysis begun on:  Mon Apr  1 18:19:34 2019
  Analysis ended on:  Mon Apr  1 18:19:39 2019
  Total elapsed time: 00:00:05