
  EPA STORM WATER MANAGEMENT MODEL - VERSION 5.1 (Build 5.2.0.dev4)
  --------------------------------------------------------------

  
  **********************           Volume        Volume
  Rainfall Dependent I/I        acre-feet      10^6 gal
  **********************        ---------     ---------
  Sewershed Rainfall ......        93.183        30.365
  RDII Produced ...........        12.922         4.211
  RDII Ratio ..............         0.139
  
  
  *********************************************************
  NOTE: The summary statistics displayed in this report are
  based on results found at every computational time step,  
  not just on results from each reporting time step.
  *********************************************************
  
  ****************
  Analysis Options
  ****************
  Flow Units ............... CFS
  Process Models:
    Rainfall/Runoff ........ YES
    RDII ................... YES
    Snowmelt ............... NO
    Groundwater ............ NO
    Flow Routing ........... YES
    Ponding Allowed ........ YES
    Water Quality .......... YES
  Infiltration Method ...... GREEN_AMPT
  Flow Routing Method ...... DYNWAVE
  Starting Date ............ 07/05/2014 12:00:00
  Ending Date .............. 07/10/2014 00:05:00
  Antecedent Dry Days ...... 5.0
  Report Time Step ......... 00:01:00
  Wet Time Step ............ 00:01:00
  Dry Time Step ............ 00:01:00
  Routing Time Step ........ 60.00 sec
  Variable Time Step ....... YES
  Maximum Trials ........... 8
  Number of Threads ........ 1
  Head Tolerance ........... 0.005000 ft
  
  
  **************************        Volume         Depth
  Runoff Quantity Continuity     acre-feet        inches
  **************************     ---------       -------
  Total Precipitation ......        68.054         3.965
  Evaporation Loss .........         0.000         0.000
  Infiltration Loss ........        20.982         1.223
  Surface Runoff ...........        46.455         2.707
  Final Storage ............         0.633         0.037
  Continuity Error (%) .....        -0.023
  
  
  **************************           TSS
  Runoff Quality Continuity            lbs
  **************************    ----------
  Initial Buildup ..........      3394.520
  Surface Buildup ..........      2474.659
  Wet Deposition ...........         0.000
  Sweeping Removal .........         0.000
  Infiltration Loss ........         0.000
  BMP Removal ..............         0.000
  Surface Runoff ...........      2578.275
  Remaining Buildup ........      3290.904
  Continuity Error (%) .....         0.000
  
  
  **************************        Volume        Volume
  Flow Routing Continuity        acre-feet      10^6 gal
  **************************     ---------     ---------
  Dry Weather Inflow .......         0.000         0.000
  Wet Weather Inflow .......        46.412        15.124
  Groundwater Inflow .......         0.000         0.000
  RDII Inflow ..............        12.922         4.211
  External Inflow ..........         0.000         0.000
  External Outflow .........        31.427        10.241
  Flooding Loss ............         8.259         2.691
  Evaporation Loss .........         0.000         0.000
  Exfiltration Loss ........         0.000         0.000
  Initial Stored Volume ....         0.000         0.000
  Final Stored Volume ......        19.948         6.500
  Continuity Error (%) .....        -0.504
  
  
  **************************           TSS
  Quality Routing Continuity           lbs
  **************************    ----------
  Dry Weather Inflow .......         0.000
  Wet Weather Inflow .......      2575.425
  Groundwater Inflow .......         0.000
  RDII Inflow ..............         0.000
  External Inflow ..........         0.000
  External Outflow .........      1301.919
  Flooding Loss ............       485.355
  Exfiltration Loss ........         0.000
  Mass Reacted .............         0.000
  Initial Stored Mass ......         0.000
  Final Stored Mass ........       799.106
  Continuity Error (%) .....        -0.425
  
  
  *************************
  Highest Continuity Errors
  *************************
  Node J23 (-3.32%)
  Node 93-49921 (1.14%)
  
  
  ***************************
  Time-Step Critical Elements
  ***************************
  Link C11 (73.22%)
  Link C09 (19.63%)
  Link C22 (5.64%)
  
  
  ********************************
  Highest Flow Instability Indexes
  ********************************
  Link OR47 (14)
  Link C12 (13)
  Link OR43 (3)
  Link C22 (3)
  Link OR34 (2)
  
  
  *************************
  Routing Time Step Summary
  *************************
  Minimum Time Step           :     1.65 sec
  Average Time Step           :    15.57 sec
  Maximum Time Step           :    60.00 sec
  Percent in Steady State     :    -0.00
  Average Iterations per Step :     2.06
  Percent Not Converging      :     0.70
  
  
  ***************************
  Subcatchment Runoff Summary
  ***************************
  
  --------------------------------------------------------------------------------------------------------
                            Total      Total      Total      Total      Total       Total     Peak  Runoff
                           Precip      Runon       Evap      Infil     Runoff      Runoff   Runoff   Coeff
  Subcatchment                 in         in         in         in         in    10^6 gal      CFS
  --------------------------------------------------------------------------------------------------------
  102                        3.97       0.00       0.00       1.42       2.51        0.19    12.89   0.633
  103                        3.97       0.00       0.00       1.85       2.10        0.32    24.88   0.528
  115                        3.97       0.00       0.00       1.97       1.97        0.55    28.82   0.498
  120                        3.97       0.00       0.00       1.50       2.43        0.44    30.74   0.613
  1472                       3.97       0.00       0.00       1.14       2.79        0.24    15.62   0.704
  1497                       3.97       0.00       0.00       0.43       3.48        1.41    76.49   0.878
  1499                       3.97       0.00       0.00       0.15       3.76        2.58   128.63   0.948
  1503                       3.97       0.00       0.00       0.80       3.12        0.11     6.65   0.788
  1506                       3.97       0.00       0.00       1.58       2.35        0.65    45.86   0.594
  1570                       3.97       0.00       0.00       2.13       1.82        0.39    31.86   0.459
  1648                       3.97       0.00       0.00       1.78       2.16        0.16    11.65   0.544
  1736                       3.97       0.00       0.00       1.45       2.48        1.01    69.19   0.626
  1780                       3.97       0.00       0.00       1.95       2.00        0.13     9.68   0.503
  54                         3.97       0.00       0.00       0.41       3.51        3.46   183.93   0.884
  57                         3.97       0.00       0.00       2.36       1.58        0.44    23.99   0.399
  62                         3.97       0.00       0.00       1.97       1.97        0.57    46.72   0.497
  93                         3.97       0.00       0.00       1.45       2.48        0.55    38.98   0.626
  94                         3.97       0.00       0.00       1.94       2.00        0.69    57.25   0.505
  97                         3.97       0.00       0.00       1.62       2.32        1.24    89.70   0.585
  
  
  ****************************
  Subcatchment Washoff Summary
  ****************************
  
  ----------------------------------
                                 TSS
  Subcatchment                   lbs
  ----------------------------------
  102                         35.862
  103                         64.926
  115                        112.348
  120                         83.378
  1472                        41.822
  1497                       209.760
  1499                       363.716
  1503                        18.094
  1506                       124.492
  1570                        78.958
  1648                        31.981
  1736                       188.670
  1780                        25.684
  54                         510.951
  57                          88.543
  62                         115.091
  93                         103.453
  94                         141.176
  97                         239.369
  ----------------------------------
  System                    2578.275
  
  
  ******************
  Node Depth Summary
  ******************
  
  ---------------------------------------------------------------------------------
                                 Average  Maximum  Maximum  Time of Max    Reported
                                   Depth    Depth      HGL   Occurrence   Max Depth
  Node                 Type         Feet     Feet     Feet  days hr:min        Feet
  ---------------------------------------------------------------------------------
  J13                  JUNCTION     0.05     1.00   889.17     0  12:14        1.00
  J14                  JUNCTION     0.09     1.00   882.00     0  11:55        1.00
  J15                  JUNCTION     0.19     1.00   872.00     0  11:03        1.00
  J18                  JUNCTION     0.27     1.00   875.22     0  11:54        1.00
  J19                  JUNCTION     0.14     0.23   858.51     1  02:47        0.23
  J22                  JUNCTION     0.03     0.33   879.33     0  12:24        0.33
  J23                  JUNCTION     0.10     0.27   868.27     0  13:40        0.27
  J24                  JUNCTION     0.48     0.51   846.51     2  02:12        0.51
  J25                  JUNCTION     0.28     0.32   832.82     4  00:11        0.32
  J26                  JUNCTION     0.42     0.65   822.15     0  12:07        0.65
  ZOF1                 OUTFALL      0.00     0.00   810.00     0  00:00        0.00
  93-49743             STORAGE      1.31    10.90   885.12     0  12:42       10.90
  93-49868             STORAGE      0.22     4.97   893.14     0  12:21        4.97
  93-49919             STORAGE      0.94     3.95   871.95     0  13:40        3.95
  93-49921             STORAGE      6.98     8.58   854.58     2  02:11        8.58
  93-50074             STORAGE      3.59     8.95   867.23     1  02:46        8.95
  93-50076             STORAGE      2.11     2.83   835.33     4  00:11        2.83
  93-50077             STORAGE      1.23     3.69   813.69     0  16:01        3.69
  93-50081             STORAGE      0.81     1.95   823.45     0  12:06        1.95
  93-50225             STORAGE      0.59     5.62   876.62     0  16:11        5.62
  93-90357             STORAGE      0.31     6.17   885.17     0  12:24        6.17
  93-90358             STORAGE      0.30     5.50   886.50     0  12:20        5.50
  
  
  *******************
  Node Inflow Summary
  *******************
  
  -------------------------------------------------------------------------------------------------
                                  Maximum  Maximum                  Lateral       Total        Flow
                                  Lateral    Total  Time of Max      Inflow      Inflow     Balance
                                   Inflow   Inflow   Occurrence      Volume      Volume       Error
  Node                 Type           CFS      CFS  days hr:min    10^6 gal    10^6 gal     Percent
  -------------------------------------------------------------------------------------------------
  J13                  JUNCTION      0.00     5.04     0  12:12           0       0.693       0.019
  J14                  JUNCTION      0.00     8.37     0  12:20           0        1.34      -0.006
  J15                  JUNCTION      0.00     6.74     0  16:11           0         1.9      -0.005
  J18                  JUNCTION      0.00     8.97     0  12:42           0        3.69      -0.006
  J19                  JUNCTION      0.00     3.25     1  02:46           0        4.61      -0.074
  J22                  JUNCTION      0.00     3.27     0  12:24           0       0.581      -0.009
  J23                  JUNCTION      0.00     2.52     0  13:40           0        2.08      -3.216
  J24                  JUNCTION      0.00     2.93     2  02:11           0        7.16       0.016
  J25                  JUNCTION      0.00     2.54     4  00:11           0        5.73       0.003
  J26                  JUNCTION      0.00     4.22     0  12:06           0        5.83      -0.009
  ZOF1                 OUTFALL       0.00     7.00     0  16:02           0        10.2       0.000
  93-49743             STORAGE     150.56   150.56     0  12:00        3.69        3.69       0.003
  93-49868             STORAGE      57.25    57.25     0  12:00       0.694       0.693      -0.011
  93-49919             STORAGE     105.32   106.79     0  12:00        1.48        2.08      -0.132
  93-49921             STORAGE     175.90   180.45     0  12:00        4.75        11.5       1.148
  93-50074             STORAGE     115.47   120.20     0  12:00        1.97        4.61      -0.144
  93-50076             STORAGE      23.99    25.58     0  12:00       0.435        7.59       0.092
  93-50077             STORAGE     184.34   187.90     0  12:00        4.66        10.5       0.008
  93-50081             STORAGE       6.65     7.54     0  12:00       0.114        5.84       0.036
  93-50225             STORAGE      24.88    32.42     0  12:00       0.319        1.89      -0.133
  93-90357             STORAGE      44.75    44.75     0  12:00       0.581       0.581       0.011
  93-90358             STORAGE      45.86    50.15     0  12:00       0.648        1.34      -0.011
  
  
  **********************
  Node Surcharge Summary
  **********************
  
  Surcharging occurs when water rises above the top of the highest conduit.
  ---------------------------------------------------------------------
                                               Max. Height   Min. Depth
                                   Hours       Above Crown    Below Rim
  Node                 Type      Surcharged           Feet         Feet
  ---------------------------------------------------------------------
  J13                  JUNCTION        0.71          0.000        0.000
  J14                  JUNCTION        4.59          0.000        0.000
  J15                  JUNCTION       10.24          0.000        0.000
  J18                  JUNCTION       13.59          0.000        0.000
  
  
  *********************
  Node Flooding Summary
  *********************
  
  Flooding refers to all water that overflows a node, whether it ponds or not.
  --------------------------------------------------------------------------
                                                             Total   Maximum
                                 Maximum   Time of Max       Flood    Ponded
                        Hours       Rate    Occurrence      Volume     Depth
  Node                 Flooded       CFS   days hr:min    10^6 gal      Feet
  --------------------------------------------------------------------------
  J13                     0.71      0.42      0  12:21       0.005     0.000
  J14                     4.59      3.80      0  12:27       0.342     0.000
  J15                    10.24      6.30      0  14:26       1.291     0.000
  J18                    13.59      4.58      0  12:52       1.053     0.000
  
  
  **********************
  Storage Volume Summary
  **********************
  
  --------------------------------------------------------------------------------------------------
                         Average     Avg  Evap Exfil       Maximum     Max    Time of Max    Maximum
                          Volume    Pcnt  Pcnt  Pcnt        Volume    Pcnt     Occurrence    Outflow
  Storage Unit          1000 ft3    Full  Loss  Loss      1000 ft3    Full    days hr:min        CFS
  --------------------------------------------------------------------------------------------------
  93-49743                12.989       5     0     0       157.290      57       0  12:42       8.97
  93-49868                 1.197       1     0     0        44.900      37       0  12:21       5.04
  93-49919                33.529       7     0     0       159.626      35       0  13:40       2.52
  93-49921               733.564      65     0     0       932.165      83       2  02:11       2.93
  93-50074               111.706      16     0     0       329.789      48       1  02:46       3.25
  93-50076               184.479      17     0     0       251.891      23       4  00:11       2.54
  93-50077                93.698       9     0     0       300.395      29       0  16:01       7.00
  93-50081                 0.803       3     0     0         3.059      11       0  12:06       4.22
  93-50225                 4.996       1     0     0        56.874      10       0  16:11       6.74
  93-90357                 1.526       2     0     0        39.505      53       0  12:24       3.27
  93-90358                 1.356       1     0     0        38.799      28       0  12:20       8.37
  
  
  ***********************
  Outfall Loading Summary
  ***********************
  
  -------------------------------------------------------------------------
                         Flow       Avg       Max       Total         Total
                         Freq      Flow      Flow      Volume           TSS
  Outfall Node           Pcnt       CFS       CFS    10^6 gal           lbs
  -------------------------------------------------------------------------
  ZOF1                  99.87      3.69      7.00      10.240      1301.993
  -------------------------------------------------------------------------
  System                99.87      3.69      7.00      10.240      1301.993
  
  
  ********************
  Link Flow Summary
  ********************
  
  -----------------------------------------------------------------------------
                                 Maximum  Time of Max   Maximum    Max/    Max/
                                  |Flow|   Occurrence   |Veloc|    Full    Full
  Link                 Type          CFS  days hr:min    ft/sec    Flow   Depth
  -----------------------------------------------------------------------------
  C08                  CONDUIT      5.35     0  11:53      6.94    0.96    1.00
  C09                  CONDUIT     17.28     0  03:27    >50.00    1.08    0.63
  C10                  CONDUIT      2.93     2  02:12      6.59    0.52    0.76
  C11                  CONDUIT      2.54     4  00:11      5.09    0.22    0.63
  C12                  CONDUIT      4.21     0  12:07      6.78    0.76    0.83
  C18                  CONDUIT      5.07     0  12:58      6.71    0.67    1.00
  C19                  CONDUIT      5.62     0  11:54      7.31    0.96    1.00
  C21                  CONDUIT      2.26     0  10:56      3.00    0.97    1.00
  C22                  CONDUIT      3.27     0  12:24      4.26    0.12    0.62
  C95-53307            CONDUIT      3.25     1  02:48     18.71    0.00    0.52
  OR34                 ORIFICE      5.04     0  12:12                          
  OR35                 ORIFICE      8.37     0  12:20                          
  OR36                 ORIFICE      6.74     0  16:11                          
  OR38                 ORIFICE      3.25     1  02:46                          
  OR39                 ORIFICE      8.97     0  12:42                          
  OR43                 ORIFICE      3.27     0  12:24                          
  OR44                 ORIFICE      2.52     0  13:40                          
  OR45                 ORIFICE      2.93     2  02:11                          
  OR46                 ORIFICE      2.54     4  00:11                          
  OR47                 ORIFICE      4.22     0  12:06                          
  OR48                 ORIFICE      7.00     0  16:02                          
  
  
  ***************************
  Flow Classification Summary
  ***************************
  
  -------------------------------------------------------------------------------------
                      Adjusted    ---------- Fraction of Time in Flow Class ---------- 
                       /Actual         Up    Down  Sub   Sup   Up    Down  Norm  Inlet 
  Conduit               Length    Dry  Dry   Dry   Crit  Crit  Crit  Crit  Ltd   Ctrl  
  -------------------------------------------------------------------------------------
  C08                     1.00   0.00  0.00  0.00  0.72  0.28  0.00  0.00  0.83  0.00
  C09                     1.00   0.00  0.01  0.00  0.82  0.18  0.00  0.00  0.97  0.00
  C10                     1.00   0.00  0.00  0.00  0.93  0.06  0.00  0.00  0.90  0.00
  C11                     1.00   0.00  0.00  0.00  0.04  0.96  0.00  0.00  0.99  0.00
  C12                     1.00   0.00  0.00  0.00  0.41  0.59  0.00  0.00  0.97  0.00
  C18                     1.00   0.00  0.00  0.00  0.96  0.04  0.00  0.00  0.40  0.00
  C19                     1.00   0.00  0.32  0.00  0.66  0.01  0.00  0.00  0.94  0.00
  C21                     1.00   0.00  0.00  0.00  0.99  0.01  0.00  0.00  0.81  0.00
  C22                     1.00   0.00  0.48  0.00  0.52  0.00  0.00  0.00  0.99  0.00
  C95-53307               1.00   0.00  0.00  0.00  0.99  0.01  0.00  0.00  0.98  0.00
  
  
  *************************
  Conduit Surcharge Summary
  *************************
  
  ----------------------------------------------------------------------------
                                                           Hours        Hours 
                         --------- Hours Full --------   Above Full   Capacity
  Conduit                Both Ends  Upstream  Dnstream   Normal Flow   Limited
  ----------------------------------------------------------------------------
  C08                        13.59     13.59     65.42      0.01         0.01
  C09                         0.01      0.01     99.17      0.05         0.01
  C10                         0.01      0.01     91.53      0.01         0.01
  C11                         0.01      0.01      0.63      0.01         0.01
  C12                         0.01      0.01     34.08      0.01         0.01
  C18                         0.71      0.71      5.57      0.01         0.01
  C19                         4.59      4.59     14.37      0.01         0.01
  C21                        10.24     10.24     32.85      0.01         0.01
  C22                         0.01      0.01      9.98      0.01         0.01
  C95-53307                   0.01      0.01     74.92      0.01         0.01
  
  
  ***************************
  Link Pollutant Load Summary
  ***************************
  
  ----------------------------------
                                 TSS
  Link                           lbs
  ----------------------------------
  C08                        285.912
  C09                        403.104
  C10                        953.462
  C11                        806.405
  C12                        823.484
  C18                        139.965
  C19                        194.991
  C21                        116.972
  C22                        114.827
  C95-53307                  618.531
  OR34                       141.052
  OR35                       264.342
  OR36                       374.840
  OR38                       597.629
  OR39                       441.847
  OR43                       114.680
  OR44                       397.578
  OR45                       953.413
  OR46                       806.387
  OR47                       823.249
  OR48                      1301.993
  

  Analysis begun on:  Mon Apr  1 18:19:40 2019
  Analysis ended on:  Mon Apr  1 18:19:45 2019
  Total elapsed time: 00:00:05