
  EPA STORM WATER MANAGEMENT MODEL - VERSION 5.1 (Build 5.2.0.dev4)
  --------------------------------------------------------------

  
  **********************           Volume        Volume
  Rainfall Dependent I/I        acre-feet      10^6 gal
  **********************        ---------     ---------
  Sewershed Rainfall ......        75.114        24.477
  RDII Produced ...........        10.212         3.328
  RDII Ratio ..............         0.136
  
  
  *********************************************************
  NOTE: The summary statistics displayed in this report are
  based on results found at every computational time step,  
  not just on results from each reporting time step.
  *********************************************************
  
  ****************
  Analysis Options
  ****************
  Flow Units ............... CFS
  Process Models:
    Rainfall/Runoff ........ YES
    RDII ................... YES
    Snowmelt ............... NO
    Groundwater ............ NO
    Flow Routing ........... YES
    Ponding Allowed ........ YES
    Water Quality .......... YES
  Infiltration Method ...... GREEN_AMPT
  Flow Routing Method ...... DYNWAVE
  Starting Date ............ 07/05/2014 12:00:00
  Ending Date .............. 07/10/2014 00:05:00
  Antecedent Dry Days ...... 5.0
  Report Time Step ......... 00:01:00
  Wet Time Step ............ 00:01:00
  Dry Time Step ............ 00:01:00
  Routing Time Step ........ 60.00 sec
  Variable Time Step ....... YES
  Maximum Trials ........... 8
  Number of Threads ........ 1
  Head Tolerance ........... 0.005000 ft
  
  
  **************************        Volume         Depth
  Runoff Quantity Continuity     acre-feet        inches
  **************************     ---------       -------
  Total Precipitation ......        54.857         3.196
  Evaporation Loss .........         0.000         0.000
  Infiltration Loss ........        17.992         1.048
  Surface Runoff ...........        36.244         2.112
  Final Storage ............         0.633         0.037
  Continuity Error (%) .....        -0.022
  
  
  **************************           TSS
  Runoff Quality Continuity            lbs
  **************************    ----------
  Initial Buildup ..........      3394.520
  Surface Buildup ..........      2144.419
  Wet Deposition ...........         0.000
  Sweeping Removal .........         0.000
  Infiltration Loss ........         0.000
  BMP Removal ..............         0.000
  Surface Runoff ...........      2193.318
  Remaining Buildup ........      3345.621
  Continuity Error (%) .....         0.000
  
  
  **************************        Volume        Volume
  Flow Routing Continuity        acre-feet      10^6 gal
  **************************     ---------     ---------
  Dry Weather Inflow .......         0.000         0.000
  Wet Weather Inflow .......        36.221        11.803
  Groundwater Inflow .......         0.000         0.000
  RDII Inflow ..............        10.212         3.328
  External Inflow ..........         0.000         0.000
  External Outflow .........        27.050         8.815
  Flooding Loss ............         4.780         1.558
  Evaporation Loss .........         0.000         0.000
  Exfiltration Loss ........         0.000         0.000
  Initial Stored Volume ....         0.000         0.000
  Final Stored Volume ......        14.727         4.799
  Continuity Error (%) .....        -0.267
  
  
  **************************           TSS
  Quality Routing Continuity           lbs
  **************************    ----------
  Dry Weather Inflow .......         0.000
  Wet Weather Inflow .......      2191.789
  Groundwater Inflow .......         0.000
  RDII Inflow ..............         0.000
  External Inflow ..........         0.000
  External Outflow .........      1254.879
  Flooding Loss ............       299.627
  Exfiltration Loss ........         0.000
  Mass Reacted .............         0.000
  Initial Stored Mass ......         0.000
  Final Stored Mass ........       649.454
  Continuity Error (%) .....        -0.555
  
  
  *************************
  Highest Continuity Errors
  *************************
  Node J23 (-1.22%)
  Node 93-49921 (1.07%)
  
  
  ***************************
  Time-Step Critical Elements
  ***************************
  Link C11 (73.79%)
  Link C09 (19.90%)
  Link C22 (4.55%)
  
  
  ********************************
  Highest Flow Instability Indexes
  ********************************
  Link OR47 (17)
  Link C12 (16)
  Link OR43 (2)
  Link C22 (2)
  Link OR34 (2)
  
  
  *************************
  Routing Time Step Summary
  *************************
  Minimum Time Step           :     3.94 sec
  Average Time Step           :    16.31 sec
  Maximum Time Step           :    60.00 sec
  Percent in Steady State     :     0.00
  Average Iterations per Step :     2.05
  Percent Not Converging      :     0.52
  
  
  ***************************
  Subcatchment Runoff Summary
  ***************************
  
  --------------------------------------------------------------------------------------------------------
                            Total      Total      Total      Total      Total       Total     Peak  Runoff
                           Precip      Runon       Evap      Infil     Runoff      Runoff   Runoff   Coeff
  Subcatchment                 in         in         in         in         in    10^6 gal      CFS
  --------------------------------------------------------------------------------------------------------
  102                        3.20       0.00       0.00       1.25       1.91        0.15     9.15   0.599
  103                        3.20       0.00       0.00       1.57       1.60        0.24    18.37   0.501
  115                        3.20       0.00       0.00       1.68       1.49        0.42    20.95   0.466
  120                        3.20       0.00       0.00       1.28       1.89        0.34    23.09   0.591
  1472                       3.20       0.00       0.00       0.96       2.19        0.19    11.99   0.686
  1497                       3.20       0.00       0.00       0.37       2.78        1.13    60.34   0.869
  1499                       3.20       0.00       0.00       0.13       3.01        2.07   101.91   0.943
  1503                       3.20       0.00       0.00       0.68       2.47        0.09     5.17   0.774
  1506                       3.20       0.00       0.00       1.39       1.78        0.49    32.16   0.556
  1570                       3.20       0.00       0.00       1.81       1.37        0.29    22.86   0.427
  1648                       3.20       0.00       0.00       1.57       1.60        0.12     7.93   0.502
  1736                       3.20       0.00       0.00       1.27       1.89        0.77    49.24   0.591
  1780                       3.20       0.00       0.00       1.71       1.46        0.09     6.44   0.458
  54                         3.20       0.00       0.00       0.34       2.80        2.77   144.76   0.876
  57                         3.20       0.00       0.00       2.05       1.13        0.31    16.17   0.354
  62                         3.20       0.00       0.00       1.68       1.50        0.43    34.40   0.468
  93                         3.20       0.00       0.00       1.23       1.93        0.43    29.56   0.605
  94                         3.20       0.00       0.00       1.65       1.52        0.53    42.56   0.476
  97                         3.20       0.00       0.00       1.38       1.79        0.96    67.03   0.561
  
  
  ****************************
  Subcatchment Washoff Summary
  ****************************
  
  ----------------------------------
                                 TSS
  Subcatchment                   lbs
  ----------------------------------
  102                         30.005
  103                         49.650
  115                         84.704
  120                         69.745
  1472                        38.160
  1497                       194.758
  1499                       336.857
  1503                        16.835
  1506                        99.571
  1570                        59.254
  1648                        24.013
  1736                       156.504
  1780                        18.821
  54                         474.291
  57                          63.244
  62                          87.338
  93                          87.761
  94                         107.390
  97                         194.416
  ----------------------------------
  System                    2193.318
  
  
  ******************
  Node Depth Summary
  ******************
  
  ---------------------------------------------------------------------------------
                                 Average  Maximum  Maximum  Time of Max    Reported
                                   Depth    Depth      HGL   Occurrence   Max Depth
  Node                 Type         Feet     Feet     Feet  days hr:min        Feet
  ---------------------------------------------------------------------------------
  J13                  JUNCTION     0.04     0.64   888.81     0  12:19        0.64
  J14                  JUNCTION     0.08     1.00   882.00     0  11:58        1.00
  J15                  JUNCTION     0.16     1.00   872.00     0  11:29        1.00
  J18                  JUNCTION     0.24     1.00   875.22     0  11:58        1.00
  J19                  JUNCTION     0.12     0.22   858.50     1  00:37        0.22
  J22                  JUNCTION     0.03     0.31   879.31     0  12:21        0.31
  J23                  JUNCTION     0.09     0.26   868.26     0  15:06        0.26
  J24                  JUNCTION     0.45     0.49   846.49     1  23:05        0.49
  J25                  JUNCTION     0.27     0.31   832.81     3  16:20        0.31
  J26                  JUNCTION     0.41     0.59   822.09     0  12:07        0.59
  ZOF1                 OUTFALL      0.00     0.00   810.00     0  00:00        0.00
  93-49743             STORAGE      0.92     8.85   883.07     0  12:36        8.85
  93-49868             STORAGE      0.16     4.08   892.25     0  12:18        4.08
  93-49919             STORAGE      0.77     3.29   871.29     0  15:06        3.29
  93-49921             STORAGE      5.75     7.32   853.32     1  23:05        7.32
  93-50074             STORAGE      2.88     8.07   866.35     1  00:35        8.07
  93-50076             STORAGE      1.81     2.40   834.90     3  16:20        2.40
  93-50077             STORAGE      0.91     2.88   812.88     0  14:29        2.88
  93-50081             STORAGE      0.74     1.54   823.04     0  12:06        1.54
  93-50225             STORAGE      0.45     5.20   876.20     0  15:31        5.20
  93-90357             STORAGE      0.21     4.83   883.83     0  12:21        4.83
  93-90358             STORAGE      0.22     4.66   885.66     0  12:18        4.66
  
  
  *******************
  Node Inflow Summary
  *******************
  
  -------------------------------------------------------------------------------------------------
                                  Maximum  Maximum                  Lateral       Total        Flow
                                  Lateral    Total  Time of Max      Inflow      Inflow     Balance
                                   Inflow   Inflow   Occurrence      Volume      Volume       Error
  Node                 Type           CFS      CFS  days hr:min    10^6 gal    10^6 gal     Percent
  -------------------------------------------------------------------------------------------------
  J13                  JUNCTION      0.00     4.69     0  12:18           0       0.527      -0.019
  J14                  JUNCTION      0.00     7.55     0  12:18           0        1.02      -0.016
  J15                  JUNCTION      0.00     6.42     0  15:31           0        1.51       0.002
  J18                  JUNCTION      0.00     7.98     0  12:36           0        2.85      -0.004
  J19                  JUNCTION      0.00     3.08     1  00:36           0         3.9      -0.098
  J22                  JUNCTION      0.00     2.87     0  12:21           0       0.439       0.023
  J23                  JUNCTION      0.00     2.29     0  15:06           0        1.81      -1.201
  J24                  JUNCTION      0.00     2.69     1  23:05           0        6.42       0.015
  J25                  JUNCTION      0.00     2.32     3  16:20           0        5.22       0.004
  J26                  JUNCTION      0.00     3.61     0  12:06           0        5.31      -0.022
  ZOF1                 OUTFALL       0.00     6.19     0  14:29           0        8.81       0.000
  93-49743             STORAGE     108.00   108.00     0  12:00        2.85        2.85      -0.001
  93-49868             STORAGE      42.56    42.56     0  12:00       0.528       0.528       0.020
  93-49919             STORAGE      79.02    80.77     0  12:00        1.15         1.8      -0.128
  93-49921             STORAGE     136.70   140.81     0  12:00        3.77         9.5       1.084
  93-50074             STORAGE      89.90    94.80     0  12:00        1.56        3.89      -0.148
  93-50076             STORAGE      16.17    17.57     0  12:00       0.311        6.73       0.087
  93-50077             STORAGE     145.04   148.06     0  12:00        3.71        9.01       0.008
  93-50081             STORAGE       5.17     5.91     0  12:00        0.09        5.31       0.050
  93-50225             STORAGE      18.37    25.82     0  12:00       0.244        1.51      -0.161
  93-90357             STORAGE      32.01    32.01     0  12:00       0.439       0.439      -0.008
  93-90358             STORAGE      32.16    36.15     0  12:00        0.49        1.02       0.001
  
  
  **********************
  Node Surcharge Summary
  **********************
  
  Surcharging occurs when water rises above the top of the highest conduit.
  ---------------------------------------------------------------------
                                               Max. Height   Min. Depth
                                   Hours       Above Crown    Below Rim
  Node                 Type      Surcharged           Feet         Feet
  ---------------------------------------------------------------------
  J14                  JUNCTION        3.42          0.000        0.000
  J15                  JUNCTION        7.99          0.000        0.000
  J18                  JUNCTION        9.63          0.000        0.000
  
  
  *********************
  Node Flooding Summary
  *********************
  
  Flooding refers to all water that overflows a node, whether it ponds or not.
  --------------------------------------------------------------------------
                                                             Total   Maximum
                                 Maximum   Time of Max       Flood    Ponded
                        Hours       Rate    Occurrence      Volume     Depth
  Node                 Flooded       CFS   days hr:min    10^6 gal      Feet
  --------------------------------------------------------------------------
  J14                     3.42      2.79      0  12:29       0.186     0.000
  J15                     7.99      5.28      0  15:31       0.856     0.000
  J18                     9.63      3.37      0  12:43       0.515     0.000
  
  
  **********************
  Storage Volume Summary
  **********************
  
  --------------------------------------------------------------------------------------------------
                         Average     Avg  Evap Exfil       Maximum     Max    Time of Max    Maximum
                          Volume    Pcnt  Pcnt  Pcnt        Volume    Pcnt     Occurrence    Outflow
  Storage Unit          1000 ft3    Full  Loss  Loss      1000 ft3    Full    days hr:min        CFS
  --------------------------------------------------------------------------------------------------
  93-49743                 7.281       3     0     0       109.698      40       0  12:36       7.98
  93-49868                 0.641       1     0     0        31.228      26       0  12:18       4.69
  93-49919                26.510       6     0     0       127.356      28       0  15:06       2.29
  93-49921               579.839      52     0     0       764.199      68       1  23:05       2.69
  93-50074                83.777      12     0     0       277.573      40       1  00:35       3.08
  93-50076               155.912      14     0     0       210.043      19       3  16:20       2.32
  93-50077                67.895       6     0     0       229.176      22       0  14:29       6.19
  93-50081                 0.701       2     0     0         2.129       8       0  12:06       3.61
  93-50225                 3.553       1     0     0        48.004       8       0  15:31       6.42
  93-90357                 0.869       1     0     0        27.441      37       0  12:21       2.87
  93-90358                 0.765       1     0     0        26.570      19       0  12:18       7.55
  
  
  ***********************
  Outfall Loading Summary
  ***********************
  
  -------------------------------------------------------------------------
                         Flow       Avg       Max       Total         Total
                         Freq      Flow      Flow      Volume           TSS
  Outfall Node           Pcnt       CFS       CFS    10^6 gal           lbs
  -------------------------------------------------------------------------
  ZOF1                  99.84      3.19      6.19       8.814      1254.947
  -------------------------------------------------------------------------
  System                99.84      3.19      6.19       8.814      1254.947
  
  
  ********************
  Link Flow Summary
  ********************
  
  -----------------------------------------------------------------------------
                                 Maximum  Time of Max   Maximum    Max/    Max/
                                  |Flow|   Occurrence   |Veloc|    Full    Full
  Link                 Type          CFS  days hr:min    ft/sec    Flow   Depth
  -----------------------------------------------------------------------------
  C08                  CONDUIT      5.41     0  11:57      7.03    0.98    1.00
  C09                  CONDUIT      4.24     0  02:47    >50.00    0.26    0.63
  C10                  CONDUIT      2.69     1  23:06      6.40    0.48    0.74
  C11                  CONDUIT      2.32     3  16:20      5.09    0.20    0.60
  C12                  CONDUIT      3.61     0  12:07      7.06    0.65    0.79
  C18                  CONDUIT      4.69     0  12:19      6.78    0.62    0.82
  C19                  CONDUIT      5.68     0  11:57      7.40    0.97    1.00
  C21                  CONDUIT      2.31     0  11:23      3.06    0.99    1.00
  C22                  CONDUIT      2.87     0  12:21      3.40    0.11    0.61
  C95-53307            CONDUIT      3.08     1  00:37     18.71    0.00    0.52
  OR34                 ORIFICE      4.69     0  12:18                          
  OR35                 ORIFICE      7.55     0  12:18                          
  OR36                 ORIFICE      6.42     0  15:31                          
  OR38                 ORIFICE      3.08     1  00:36                          
  OR39                 ORIFICE      7.98     0  12:36                          
  OR43                 ORIFICE      2.87     0  12:21                          
  OR44                 ORIFICE      2.29     0  15:06                          
  OR45                 ORIFICE      2.69     1  23:05                          
  OR46                 ORIFICE      2.32     3  16:20                          
  OR47                 ORIFICE      3.61     0  12:06                          
  OR48                 ORIFICE      6.19     0  14:29                          
  
  
  ***************************
  Flow Classification Summary
  ***************************
  
  -------------------------------------------------------------------------------------
                      Adjusted    ---------- Fraction of Time in Flow Class ---------- 
                       /Actual         Up    Down  Sub   Sup   Up    Down  Norm  Inlet 
  Conduit               Length    Dry  Dry   Dry   Crit  Crit  Crit  Crit  Ltd   Ctrl  
  -------------------------------------------------------------------------------------
  C08                     1.00   0.00  0.00  0.00  0.65  0.35  0.00  0.00  0.82  0.00
  C09                     1.00   0.00  0.01  0.00  0.84  0.15  0.00  0.00  0.97  0.00
  C10                     1.00   0.00  0.00  0.00  0.89  0.11  0.00  0.00  0.89  0.00
  C11                     1.00   0.00  0.00  0.00  0.04  0.96  0.00  0.00  0.99  0.00
  C12                     1.00   0.00  0.00  0.00  0.34  0.66  0.00  0.00  0.51  0.00
  C18                     1.00   0.00  0.00  0.00  0.96  0.04  0.00  0.00  0.42  0.00
  C19                     1.00   0.00  0.32  0.00  0.66  0.01  0.00  0.00  0.95  0.00
  C21                     1.00   0.00  0.00  0.00  0.99  0.01  0.00  0.00  0.83  0.00
  C22                     1.00   0.00  0.48  0.00  0.52  0.00  0.00  0.00  0.99  0.00
  C95-53307               1.00   0.00  0.00  0.00  0.99  0.01  0.00  0.00  0.98  0.00
  
  
  *************************
  Conduit Surcharge Summary
  *************************
  
  ----------------------------------------------------------------------------
                                                           Hours        Hours 
                         --------- Hours Full --------   Above Full   Capacity
  Conduit                Both Ends  Upstream  Dnstream   Normal Flow   Limited
  ----------------------------------------------------------------------------
  C08                         9.63      9.63     57.07      0.01         0.01
  C09                         0.01      0.01     97.83      0.01         0.01
  C10                         0.01      0.01     86.52      0.01         0.01
  C11                         0.01      0.01      0.41      0.01         0.01
  C12                         0.01      0.01     26.76      0.01         0.01
  C18                         0.01      0.01      4.27      0.01         0.01
  C19                         3.42      3.42     10.20      0.01         0.01
  C21                         7.99      7.99     28.77      0.01         0.01
  C22                         0.01      0.01      7.95      0.01         0.01
  C95-53307                   0.01      0.01     44.14      0.01         0.01
  
  
  ***************************
  Link Pollutant Load Summary
  ***************************
  
  ----------------------------------
                                 TSS
  Link                           lbs
  ----------------------------------
  C08                        267.088
  C09                        371.131
  C10                        938.383
  C11                        793.130
  C12                        809.018
  C18                        107.334
  C19                        169.024
  C21                        133.999
  C22                         89.208
  C95-53307                  569.270
  OR34                       107.304
  OR35                       206.846
  OR36                       308.248
  OR38                       548.569
  OR39                       353.756
  OR43                        89.216
  OR44                       366.692
  OR45                       938.342
  OR46                       793.121
  OR47                       808.710
  OR48                      1254.947
  

  Analysis begun on:  Mon Apr  1 18:20:58 2019
  Analysis ended on:  Mon Apr  1 18:21:03 2019
  Total elapsed time: 00:00:05