
  EPA STORM WATER MANAGEMENT MODEL - VERSION 5.1 (Build 5.2.0.dev4)
  --------------------------------------------------------------

  
  **********************           Volume        Volume
  Rainfall Dependent I/I        acre-feet      10^6 gal
  **********************        ---------     ---------
  Sewershed Rainfall ......        89.005        29.004
  RDII Produced ...........        12.295         4.007
  RDII Ratio ..............         0.138
  
  
  *********************************************************
  NOTE: The summary statistics displayed in this report are
  based on results found at every computational time step,  
  not just on results from each reporting time step.
  *********************************************************
  
  ****************
  Analysis Options
  ****************
  Flow Units ............... CFS
  Process Models:
    Rainfall/Runoff ........ YES
    RDII ................... YES
    Snowmelt ............... NO
    Groundwater ............ NO
    Flow Routing ........... YES
    Ponding Allowed ........ YES
    Water Quality .......... YES
  Infiltration Method ...... GREEN_AMPT
  Flow Routing Method ...... DYNWAVE
  Starting Date ............ 07/05/2014 12:00:00
  Ending Date .............. 07/10/2014 00:05:00
  Antecedent Dry Days ...... 5.0
  Report Time Step ......... 00:01:00
  Wet Time Step ............ 00:01:00
  Dry Time Step ............ 00:01:00
  Routing Time Step ........ 60.00 sec
  Variable Time Step ....... YES
  Maximum Trials ........... 8
  Number of Threads ........ 1
  Head Tolerance ........... 0.005000 ft
  
  
  **************************        Volume         Depth
  Runoff Quantity Continuity     acre-feet        inches
  **************************     ---------       -------
  Total Precipitation ......        65.002         3.787
  Evaporation Loss .........         0.000         0.000
  Infiltration Loss ........        20.266         1.181
  Surface Runoff ...........        44.119         2.571
  Final Storage ............         0.633         0.037
  Continuity Error (%) .....        -0.023
  
  
  **************************           TSS
  Runoff Quality Continuity            lbs
  **************************    ----------
  Initial Buildup ..........      3394.520
  Surface Buildup ..........      2411.771
  Wet Deposition ...........         0.000
  Sweeping Removal .........         0.000
  Infiltration Loss ........         0.000
  BMP Removal ..............         0.000
  Surface Runoff ...........      2502.997
  Remaining Buildup ........      3303.294
  Continuity Error (%) .....         0.000
  
  
  **************************        Volume        Volume
  Flow Routing Continuity        acre-feet      10^6 gal
  **************************     ---------     ---------
  Dry Weather Inflow .......         0.000         0.000
  Wet Weather Inflow .......        44.089        14.367
  Groundwater Inflow .......         0.000         0.000
  RDII Inflow ..............        12.296         4.007
  External Inflow ..........         0.000         0.000
  External Outflow .........        30.372         9.897
  Flooding Loss ............         7.416         2.417
  Evaporation Loss .........         0.000         0.000
  Exfiltration Loss ........         0.000         0.000
  Initial Stored Volume ....         0.000         0.000
  Final Stored Volume ......        18.662         6.081
  Continuity Error (%) .....        -0.116
  
  
  **************************           TSS
  Quality Routing Continuity           lbs
  **************************    ----------
  Dry Weather Inflow .......         0.000
  Wet Weather Inflow .......      2501.058
  Groundwater Inflow .......         0.000
  RDII Inflow ..............         0.000
  External Inflow ..........         0.000
  External Outflow .........      1292.755
  Flooding Loss ............       445.701
  Exfiltration Loss ........         0.000
  Mass Reacted .............         0.000
  Initial Stored Mass ......         0.000
  Final Stored Mass ........       767.166
  Continuity Error (%) .....        -0.182
  
  
  *************************
  Highest Continuity Errors
  *************************
  Node 93-49921 (1.18%)
  
  
  ***************************
  Time-Step Critical Elements
  ***************************
  Link C11 (73.07%)
  Link C09 (20.02%)
  Link C22 (5.41%)
  
  
  ********************************
  Highest Flow Instability Indexes
  ********************************
  Link OR47 (14)
  Link C12 (14)
  Link OR43 (3)
  Link C22 (3)
  Link OR34 (2)
  
  
  *************************
  Routing Time Step Summary
  *************************
  Minimum Time Step           :     2.55 sec
  Average Time Step           :    15.74 sec
  Maximum Time Step           :    60.00 sec
  Percent in Steady State     :    -0.00
  Average Iterations per Step :     2.05
  Percent Not Converging      :     0.43
  
  
  ***************************
  Subcatchment Runoff Summary
  ***************************
  
  --------------------------------------------------------------------------------------------------------
                            Total      Total      Total      Total      Total       Total     Peak  Runoff
                           Precip      Runon       Evap      Infil     Runoff      Runoff   Runoff   Coeff
  Subcatchment                 in         in         in         in         in    10^6 gal      CFS
  --------------------------------------------------------------------------------------------------------
  102                        3.79       0.00       0.00       1.37       2.38        0.18    12.15   0.628
  103                        3.79       0.00       0.00       1.78       1.98        0.30    23.38   0.523
  115                        3.79       0.00       0.00       1.90       1.86        0.52    26.95   0.491
  120                        3.79       0.00       0.00       1.45       2.30        0.42    28.97   0.609
  1472                       3.79       0.00       0.00       1.10       2.65        0.23    14.79   0.700
  1497                       3.79       0.00       0.00       0.42       3.32        1.35    72.76   0.876
  1499                       3.79       0.00       0.00       0.14       3.59        2.46   122.44   0.947
  1503                       3.79       0.00       0.00       0.77       2.97        0.11     6.31   0.785
  1506                       3.79       0.00       0.00       1.53       2.23        0.61    43.18   0.589
  1570                       3.79       0.00       0.00       2.06       1.71        0.37    29.77   0.452
  1648                       3.79       0.00       0.00       1.72       2.04        0.15    10.93   0.539
  1736                       3.79       0.00       0.00       1.40       2.36        0.96    65.24   0.622
  1780                       3.79       0.00       0.00       1.88       1.88        0.12     9.07   0.497
  54                         3.79       0.00       0.00       0.39       3.34        3.30   174.90   0.883
  57                         3.79       0.00       0.00       2.28       1.48        0.41    22.34   0.392
  62                         3.79       0.00       0.00       1.91       1.86        0.53    43.91   0.491
  93                         3.79       0.00       0.00       1.40       2.36        0.53    36.83   0.622
  94                         3.79       0.00       0.00       1.88       1.89        0.66    53.90   0.499
  97                         3.79       0.00       0.00       1.56       2.20        1.17    84.53   0.580
  
  
  ****************************
  Subcatchment Washoff Summary
  ****************************
  
  ----------------------------------
                                 TSS
  Subcatchment                   lbs
  ----------------------------------
  102                         35.040
  103                         61.337
  115                        105.875
  120                         81.324
  1472                        41.189
  1497                       206.281
  1499                       357.501
  1503                        17.807
  1506                       121.468
  1570                        74.326
  1648                        30.541
  1736                       184.039
  1780                        24.248
  54                         502.468
  57                          83.099
  62                         108.607
  93                         100.926
  94                         133.327
  97                         233.594
  ----------------------------------
  System                    2502.997
  
  
  ******************
  Node Depth Summary
  ******************
  
  ---------------------------------------------------------------------------------
                                 Average  Maximum  Maximum  Time of Max    Reported
                                   Depth    Depth      HGL   Occurrence   Max Depth
  Node                 Type         Feet     Feet     Feet  days hr:min        Feet
  ---------------------------------------------------------------------------------
  J13                  JUNCTION     0.05     0.84   889.01     0  12:21        0.84
  J14                  JUNCTION     0.09     1.00   882.00     0  11:55        1.00
  J15                  JUNCTION     0.18     1.00   872.00     0  11:09        1.00
  J18                  JUNCTION     0.26     1.00   875.22     0  11:55        1.00
  J19                  JUNCTION     0.14     0.23   858.51     1  02:16        0.23
  J22                  JUNCTION     0.03     0.32   879.32     0  12:23        0.32
  J23                  JUNCTION     0.10     0.27   868.27     0  13:55        0.27
  J24                  JUNCTION     0.47     0.51   846.51     2  01:40        0.51
  J25                  JUNCTION     0.28     0.32   832.82     3  22:29        0.32
  J26                  JUNCTION     0.42     0.64   822.14     0  12:07        0.64
  ZOF1                 OUTFALL      0.00     0.00   810.00     0  00:00        0.00
  93-49743             STORAGE      1.22    10.47   884.69     0  12:40       10.47
  93-49868             STORAGE      0.20     4.76   892.93     0  12:21        4.76
  93-49919             STORAGE      0.91     3.80   871.80     0  13:55        3.80
  93-49921             STORAGE      6.67     8.27   854.27     2  01:39        8.27
  93-50074             STORAGE      3.43     8.77   867.05     1  02:15        8.77
  93-50076             STORAGE      2.03     2.73   835.23     3  22:29        2.73
  93-50077             STORAGE      1.15     3.49   813.49     0  15:47        3.49
  93-50081             STORAGE      0.79     1.85   823.35     0  12:06        1.85
  93-50225             STORAGE      0.56     5.53   876.53     0  16:20        5.53
  93-90357             STORAGE      0.29     5.86   884.86     0  12:23        5.86
  93-90358             STORAGE      0.29     5.35   886.35     0  12:21        5.35
  
  
  *******************
  Node Inflow Summary
  *******************
  
  -------------------------------------------------------------------------------------------------
                                  Maximum  Maximum                  Lateral       Total        Flow
                                  Lateral    Total  Time of Max      Inflow      Inflow     Balance
                                   Inflow   Inflow   Occurrence      Volume      Volume       Error
  Node                 Type           CFS      CFS  days hr:min    10^6 gal    10^6 gal     Percent
  -------------------------------------------------------------------------------------------------
  J13                  JUNCTION      0.00     5.01     0  12:20           0       0.655       0.020
  J14                  JUNCTION      0.00     8.23     0  12:21           0        1.27      -0.008
  J15                  JUNCTION      0.00     6.67     0  16:20           0        1.81      -0.007
  J18                  JUNCTION      0.00     8.77     0  12:40           0         3.5      -0.007
  J19                  JUNCTION      0.00     3.22     1  02:15           0        4.45      -0.084
  J22                  JUNCTION      0.00     3.18     0  12:23           0       0.548      -0.011
  J23                  JUNCTION      0.00     2.47     0  13:55           0        2.03       0.020
  J24                  JUNCTION      0.00     2.87     2  01:39           0        6.97       0.016
  J25                  JUNCTION      0.00     2.49     3  22:29           0         5.6       0.003
  J26                  JUNCTION      0.00     4.08     0  12:06           0         5.7      -0.011
  ZOF1                 OUTFALL       0.00     6.81     0  15:47           0         9.9       0.000
  93-49743             STORAGE     141.61   141.61     0  12:00         3.5         3.5       0.002
  93-49868             STORAGE      53.90    53.90     0  12:00       0.655       0.655      -0.017
  93-49919             STORAGE      99.32   100.86     0  12:00         1.4        2.03      -0.126
  93-49921             STORAGE     166.86   171.32     0  12:00        4.53          11       1.190
  93-50074             STORAGE     109.59   114.36     0  12:00        1.87        4.45      -0.145
  93-50076             STORAGE      22.34    23.86     0  12:00       0.409        7.38       0.091
  93-50077             STORAGE     175.28   178.72     0  12:00        4.44        10.1       0.008
  93-50081             STORAGE       6.31     7.15     0  12:00       0.108        5.71       0.039
  93-50225             STORAGE      23.38    30.90     0  12:00       0.302        1.81      -0.132
  93-90357             STORAGE      41.91    41.91     0  12:00       0.549       0.549       0.011
  93-90358             STORAGE      43.18    47.41     0  12:00       0.614        1.27      -0.012
  
  
  **********************
  Node Surcharge Summary
  **********************
  
  Surcharging occurs when water rises above the top of the highest conduit.
  ---------------------------------------------------------------------
                                               Max. Height   Min. Depth
                                   Hours       Above Crown    Below Rim
  Node                 Type      Surcharged           Feet         Feet
  ---------------------------------------------------------------------
  J14                  JUNCTION        4.33          0.000        0.000
  J15                  JUNCTION        9.69          0.000        0.000
  J18                  JUNCTION       12.92          0.000        0.000
  
  
  *********************
  Node Flooding Summary
  *********************
  
  Flooding refers to all water that overflows a node, whether it ponds or not.
  --------------------------------------------------------------------------
                                                             Total   Maximum
                                 Maximum   Time of Max       Flood    Ponded
                        Hours       Rate    Occurrence      Volume     Depth
  Node                 Flooded       CFS   days hr:min    10^6 gal      Feet
  --------------------------------------------------------------------------
  J14                     4.33      3.63      0  12:31       0.310     0.000
  J15                     9.68      6.01      0  15:14       1.182     0.000
  J18                    12.92      4.33      0  12:50       0.925     0.000
  
  
  **********************
  Storage Volume Summary
  **********************
  
  --------------------------------------------------------------------------------------------------
                         Average     Avg  Evap Exfil       Maximum     Max    Time of Max    Maximum
                          Volume    Pcnt  Pcnt  Pcnt        Volume    Pcnt     Occurrence    Outflow
  Storage Unit          1000 ft3    Full  Loss  Loss      1000 ft3    Full    days hr:min        CFS
  --------------------------------------------------------------------------------------------------
  93-49743                11.569       4     0     0       146.783      53       0  12:40       8.77
  93-49868                 1.043       1     0     0        41.691      34       0  12:21       5.01
  93-49919                32.182       7     0     0       152.469      34       0  13:55       2.47
  93-49921               693.970      62     0     0       889.976      79       2  01:39       2.87
  93-50074               105.347      15     0     0       318.648      46       1  02:15       3.22
  93-50076               176.884      16     0     0       241.497      22       3  22:29       2.49
  93-50077                87.133       8     0     0       282.810      27       0  15:47       6.81
  93-50081                 0.774       3     0     0         2.815      10       0  12:06       4.08
  93-50225                 4.656       1     0     0        54.881      10       0  16:20       6.67
  93-90357                 1.357       2     0     0        36.752      50       0  12:23       3.18
  93-90358                 1.228       1     0     0        36.421      26       0  12:21       8.23
  
  
  ***********************
  Outfall Loading Summary
  ***********************
  
  -------------------------------------------------------------------------
                         Flow       Avg       Max       Total         Total
                         Freq      Flow      Flow      Volume           TSS
  Outfall Node           Pcnt       CFS       CFS    10^6 gal           lbs
  -------------------------------------------------------------------------
  ZOF1                  99.86      3.57      6.81       9.896      1292.826
  -------------------------------------------------------------------------
  System                99.86      3.57      6.81       9.896      1292.826
  
  
  ********************
  Link Flow Summary
  ********************
  
  -----------------------------------------------------------------------------
                                 Maximum  Time of Max   Maximum    Max/    Max/
                                  |Flow|   Occurrence   |Veloc|    Full    Full
  Link                 Type          CFS  days hr:min    ft/sec    Flow   Depth
  -----------------------------------------------------------------------------
  C08                  CONDUIT      5.36     0  11:54      6.96    0.97    1.00
  C09                  CONDUIT      2.47     0  13:56      8.15    0.15    0.63
  C10                  CONDUIT      2.87     2  01:40      6.43    0.51    0.75
  C11                  CONDUIT      2.49     3  22:29      5.09    0.22    0.62
  C12                  CONDUIT      4.07     0  12:07      6.87    0.73    0.82
  C18                  CONDUIT      5.01     0  12:22      6.67    0.66    0.92
  C19                  CONDUIT      5.64     0  11:55      7.33    0.96    1.00
  C21                  CONDUIT      2.27     0  11:02      3.01    0.97    1.00
  C22                  CONDUIT      3.18     0  12:23      5.87    0.12    0.62
  C95-53307            CONDUIT      3.22     1  02:16     18.71    0.00    0.52
  OR34                 ORIFICE      5.01     0  12:20                          
  OR35                 ORIFICE      8.23     0  12:21                          
  OR36                 ORIFICE      6.67     0  16:20                          
  OR38                 ORIFICE      3.22     1  02:15                          
  OR39                 ORIFICE      8.77     0  12:40                          
  OR43                 ORIFICE      3.18     0  12:23                          
  OR44                 ORIFICE      2.47     0  13:55                          
  OR45                 ORIFICE      2.87     2  01:39                          
  OR46                 ORIFICE      2.49     3  22:29                          
  OR47                 ORIFICE      4.08     0  12:06                          
  OR48                 ORIFICE      6.81     0  15:47                          
  
  
  ***************************
  Flow Classification Summary
  ***************************
  
  -------------------------------------------------------------------------------------
                      Adjusted    ---------- Fraction of Time in Flow Class ---------- 
                       /Actual         Up    Down  Sub   Sup   Up    Down  Norm  Inlet 
  Conduit               Length    Dry  Dry   Dry   Crit  Crit  Crit  Crit  Ltd   Ctrl  
  -------------------------------------------------------------------------------------
  C08                     1.00   0.00  0.00  0.00  0.70  0.30  0.00  0.00  0.83  0.00
  C09                     1.00   0.00  0.00  0.00  0.81  0.18  0.00  0.00  0.98  0.00
  C10                     1.00   0.00  0.00  0.00  0.92  0.08  0.00  0.00  0.89  0.00
  C11                     1.00   0.00  0.00  0.00  0.04  0.95  0.00  0.00  0.99  0.00
  C12                     1.00   0.00  0.00  0.00  0.39  0.61  0.00  0.00  0.96  0.00
  C18                     1.00   0.00  0.00  0.00  0.95  0.05  0.00  0.00  0.40  0.00
  C19                     1.00   0.00  0.32  0.00  0.67  0.01  0.00  0.00  0.94  0.00
  C21                     1.00   0.00  0.00  0.00  0.99  0.01  0.00  0.00  0.82  0.00
  C22                     1.00   0.00  0.48  0.00  0.52  0.00  0.00  0.00  0.99  0.00
  C95-53307               1.00   0.00  0.00  0.00  0.99  0.01  0.00  0.00  0.97  0.00
  
  
  *************************
  Conduit Surcharge Summary
  *************************
  
  ----------------------------------------------------------------------------
                                                           Hours        Hours 
                         --------- Hours Full --------   Above Full   Capacity
  Conduit                Both Ends  Upstream  Dnstream   Normal Flow   Limited
  ----------------------------------------------------------------------------
  C08                        12.92     12.92     63.65      0.01         0.01
  C09                         0.01      0.01     98.52      0.01         0.01
  C10                         0.01      0.01     90.18      0.01         0.01
  C11                         0.01      0.01      0.57      0.01         0.01
  C12                         0.01      0.01     32.26      0.01         0.01
  C18                         0.01      0.01      5.29      0.01         0.01
  C19                         4.34      4.34     13.24      0.01         0.01
  C21                         9.68      9.68     32.09      0.01         0.01
  C22                         0.01      0.01      9.53      0.01         0.01
  C95-53307                   0.01      0.01     68.16      0.01         0.01
  
  
  ***************************
  Link Pollutant Load Summary
  ***************************
  
  ----------------------------------
                                 TSS
  Link                           lbs
  ----------------------------------
  C08                        283.649
  C09                        398.026
  C10                        952.400
  C11                        805.056
  C12                        821.881
  C18                        133.239
  C19                        191.818
  C21                        123.312
  C22                        109.355
  C95-53307                  610.457
  OR34                       133.256
  OR35                       254.646
  OR36                       362.741
  OR38                       589.552
  OR39                       425.948
  OR43                       109.290
  OR44                       398.096
  OR45                       952.340
  OR46                       805.040
  OR47                       821.624
  OR48                      1292.826
  

  Analysis begun on:  Mon Apr  1 18:21:14 2019
  Analysis ended on:  Mon Apr  1 18:21:19 2019
  Total elapsed time: 00:00:05