
  EPA STORM WATER MANAGEMENT MODEL - VERSION 5.1 (Build 5.2.0.dev5)
  --------------------------------------------------------------

  
  **********************           Volume        Volume
  Rainfall Dependent I/I        acre-feet      10^6 gal
  **********************        ---------     ---------
  Sewershed Rainfall ......        38.538        12.558
  RDII Produced ...........         4.683         1.526
  RDII Ratio ..............         0.122
  
  
  *********************************************************
  NOTE: The summary statistics displayed in this report are
  based on results found at every computational time step,  
  not just on results from each reporting time step.
  *********************************************************
  
  ****************
  Analysis Options
  ****************
  Flow Units ............... CFS
  Process Models:
    Rainfall/Runoff ........ YES
    RDII ................... YES
    Snowmelt ............... NO
    Groundwater ............ NO
    Flow Routing ........... YES
    Ponding Allowed ........ YES
    Water Quality .......... YES
  Infiltration Method ...... GREEN_AMPT
  Flow Routing Method ...... DYNWAVE
  Surcharge Method ......... EXTRAN
  Starting Date ............ 07/05/2014 12:00:00
  Ending Date .............. 07/10/2014 00:05:00
  Antecedent Dry Days ...... 5.0
  Report Time Step ......... 00:01:00
  Wet Time Step ............ 00:01:00
  Dry Time Step ............ 00:01:00
  Routing Time Step ........ 60.00 sec
  Variable Time Step ....... YES
  Maximum Trials ........... 8
  Number of Threads ........ 1
  Head Tolerance ........... 0.005000 ft
  
  
  **************************        Volume         Depth
  Runoff Quantity Continuity     acre-feet        inches
  **************************     ---------       -------
  Total Precipitation ......        28.145         1.640
  Evaporation Loss .........         0.000         0.000
  Infiltration Loss ........        10.831         0.631
  Surface Runoff ...........        16.725         0.974
  Final Storage ............         0.633         0.037
  Continuity Error (%) .....        -0.154
  
  
  **************************           TSS
  Runoff Quality Continuity            lbs
  **************************    ----------
  Initial Buildup ..........      3394.520
  Surface Buildup ..........      1238.585
  Wet Deposition ...........         0.000
  Sweeping Removal .........         0.000
  Infiltration Loss ........         0.000
  BMP Removal ..............         0.000
  Surface Runoff ...........      1107.289
  Remaining Buildup ........      3525.816
  Continuity Error (%) .....         0.000
  
  
  **************************        Volume        Volume
  Flow Routing Continuity        acre-feet      10^6 gal
  **************************     ---------     ---------
  Dry Weather Inflow .......         0.000         0.000
  Wet Weather Inflow .......        16.709         5.445
  Groundwater Inflow .......         0.000         0.000
  RDII Inflow ..............         4.683         1.526
  External Inflow ..........         0.000         0.000
  External Outflow .........        17.565         5.724
  Flooding Loss ............         3.458         1.127
  Evaporation Loss .........         0.000         0.000
  Exfiltration Loss ........         0.000         0.000
  Initial Stored Volume ....         0.000         0.000
  Final Stored Volume ......         0.379         0.124
  Continuity Error (%) .....        -0.048
  
  
  **************************           TSS
  Quality Routing Continuity           lbs
  **************************    ----------
  Dry Weather Inflow .......         0.000
  Wet Weather Inflow .......      1106.250
  Groundwater Inflow .......         0.000
  RDII Inflow ..............         0.000
  External Inflow ..........         0.000
  External Outflow .........       893.031
  Flooding Loss ............       219.723
  Exfiltration Loss ........         0.000
  Mass Reacted .............         0.000
  Initial Stored Mass ......         0.000
  Final Stored Mass ........         5.460
  Continuity Error (%) .....        -1.082
  
  
  ***************************
  Time-Step Critical Elements
  ***************************
  Link C11 (88.37%)
  Link C09 (10.30%)
  Link C22 (1.15%)
  
  
  ********************************
  Highest Flow Instability Indexes
  ********************************
  Link OR47 (74)
  Link OR46 (73)
  Link C11 (73)
  Link C12 (11)
  Link OR34 (3)
  
  
  *************************
  Routing Time Step Summary
  *************************
  Minimum Time Step           :     0.86 sec
  Average Time Step           :    19.57 sec
  Maximum Time Step           :    60.00 sec
  Percent in Steady State     :     0.00
  Average Iterations per Step :     2.60
  Percent Not Converging      :     0.01
  
  
  ***************************
  Subcatchment Runoff Summary
  ***************************
  
  ------------------------------------------------------------------------------------------------------------------------------
                            Total      Total      Total      Total     Imperv       Perv      Total       Total     Peak  Runoff
                           Precip      Runon       Evap      Infil     Runoff     Runoff     Runoff      Runoff   Runoff   Coeff
  Subcatchment                 in         in         in         in         in         in         in    10^6 gal      CFS
  ------------------------------------------------------------------------------------------------------------------------------
  102                        1.64       0.00       0.00       0.72       0.89       0.00       0.89        0.07     6.69   0.541
  103                        1.64       0.00       0.00       0.97       0.65       0.00       0.65        0.10    10.45   0.397
  115                        1.64       0.00       0.00       1.01       0.60       0.00       0.61        0.17    13.04   0.369
  120                        1.64       0.00       0.00       0.79       0.82       0.00       0.82        0.15    15.01   0.503
  1472                       1.64       0.00       0.00       0.59       1.01       0.00       1.01        0.09     8.59   0.618
  1497                       1.64       0.00       0.00       0.23       1.36       0.00       1.36        0.55    46.46   0.830
  1499                       1.64       0.00       0.00       0.08       1.50       0.00       1.50        1.03    80.60   0.918
  1503                       1.64       0.00       0.00       0.43       1.17       0.00       1.17        0.04     3.71   0.715
  1506                       1.64       0.00       0.00       0.80       0.81       0.00       0.81        0.22    22.77   0.493
  1570                       1.64       0.00       0.00       1.11       0.51       0.00       0.51        0.11    11.50   0.310
  1648                       1.64       0.00       0.00       0.90       0.71       0.00       0.71        0.05     5.42   0.435
  1736                       1.64       0.00       0.00       0.74       0.87       0.00       0.87        0.35    35.75   0.532
  1780                       1.64       0.00       0.00       0.98       0.63       0.00       0.63        0.04     4.20   0.387
  54                         1.64       0.00       0.00       0.21       1.38       0.00       1.38        1.36   109.86   0.839
  57                         1.64       0.00       0.00       1.12       0.51       0.00       0.51        0.14    10.96   0.309
  62                         1.64       0.00       0.00       1.05       0.57       0.00       0.57        0.16    17.53   0.350
  93                         1.64       0.00       0.00       0.75       0.86       0.00       0.86        0.19    19.68   0.522
  94                         1.64       0.00       0.00       1.05       0.56       0.02       0.57        0.20    22.50   0.349
  97                         1.64       0.00       0.00       0.84       0.78       0.00       0.78        0.41    42.86   0.474
  
  
  ****************************
  Subcatchment Washoff Summary
  ****************************
  
  ----------------------------------
                                 TSS
  Subcatchment                   lbs
  ----------------------------------
  102                         13.905
  103                         20.177
  115                         34.403
  120                         30.452
  1472                        17.966
  1497                       112.417
  1499                       209.536
  1503                         8.664
  1506                        45.262
  1570                        22.084
  1648                        10.675
  1736                        72.131
  1780                         8.163
  54                         276.184
  57                          28.274
  62                          33.466
  93                          38.875
  94                          40.371
  97                          84.285
  ----------------------------------
  System                    1107.289
  
  
  ******************
  Node Depth Summary
  ******************
  
  ---------------------------------------------------------------------------------
                                 Average  Maximum  Maximum  Time of Max    Reported
                                   Depth    Depth      HGL   Occurrence   Max Depth
  Node                 Type         Feet     Feet     Feet  days hr:min        Feet
  ---------------------------------------------------------------------------------
  J13                  JUNCTION     0.03     0.84   889.01     0  03:08        0.84
  J14                  JUNCTION     0.05     1.00   882.00     0  02:54        1.00
  J15                  JUNCTION     0.12     1.00   872.00     0  02:44        1.00
  J18                  JUNCTION     0.19     1.00   875.22     0  02:53        1.00
  J19                  JUNCTION     0.09     0.36   858.64     0  03:47        0.36
  J22                  JUNCTION     0.02     0.47   879.47     0  03:06        0.47
  J23                  JUNCTION     0.06     0.41   868.41     0  03:27        0.41
  J24                  JUNCTION     0.46     1.00   847.00     0  03:28        1.00
  J25                  JUNCTION     0.26     0.46   832.96     0  19:42        0.46
  J26                  JUNCTION     0.41     0.74   822.24     0  20:01        0.74
  ZOF1                 OUTFALL      0.00     0.00   810.00     0  00:00        0.00
  93-49743             STORAGE      0.42     5.24   879.46     0  03:16        5.24
  93-49868             STORAGE      0.06     2.39   890.56     0  03:07        2.39
  93-49919             STORAGE      0.17     1.60   869.60     0  03:27        1.60
  93-49921             STORAGE      1.05     3.25   849.25     0  08:24        3.25
  93-50074             STORAGE      0.39     3.24   861.52     0  03:46        3.24
  93-50076             STORAGE      0.64     1.37   833.87     0  19:42        1.37
  93-50077             STORAGE      0.67     1.66   811.66     0  03:57        1.66
  93-50081             STORAGE      0.80     1.65   823.15     0  20:01        1.65
  93-50225             STORAGE      0.23     3.67   874.67     0  03:32        3.67
  93-90357             STORAGE      0.04     2.00   881.00     0  03:06        2.00
  93-90358             STORAGE      0.12     3.64   884.64     0  03:16        3.64
  
  
  *******************
  Node Inflow Summary
  *******************
  
  -------------------------------------------------------------------------------------------------
                                  Maximum  Maximum                  Lateral       Total        Flow
                                  Lateral    Total  Time of Max      Inflow      Inflow     Balance
                                   Inflow   Inflow   Occurrence      Volume      Volume       Error
  Node                 Type           CFS      CFS  days hr:min    10^6 gal    10^6 gal     Percent
  -------------------------------------------------------------------------------------------------
  J13                  JUNCTION      0.00     6.51     0  03:06           0       0.198       0.005
  J14                  JUNCTION      0.00     8.48     0  03:17           0        0.42      -0.037
  J15                  JUNCTION      0.00     8.52     0  03:32           0       0.619       0.038
  J18                  JUNCTION      0.00    10.74     0  03:16           0        1.27      -0.002
  J19                  JUNCTION      0.00     8.85     0  03:46           0         1.8      -0.136
  J22                  JUNCTION      0.00     6.47     0  03:06           0       0.177      -0.008
  J23                  JUNCTION      0.00     5.68     0  03:27           0       0.802      -0.009
  J24                  JUNCTION      0.00     7.82     0  08:24           0        4.33       0.004
  J25                  JUNCTION      0.00     4.97     0  19:42           0        3.91       0.140
  J26                  JUNCTION      0.00     4.97     0  20:01           0        3.95       0.008
  ZOF1                 OUTFALL       0.00     6.72     0  03:58           0        5.72       0.000
  93-49743             STORAGE      72.64    72.64     0  02:55        1.27        1.27       0.003
  93-49868             STORAGE      22.50    22.50     0  03:05       0.198       0.198       0.300
  93-49919             STORAGE      51.45    53.78     0  02:55       0.502       0.802      -0.047
  93-49921             STORAGE      98.14   109.94     0  03:05        1.78        4.38       0.061
  93-50074             STORAGE      66.14    71.54     0  02:55       0.744         1.8      -0.100
  93-50076             STORAGE      10.96    14.25     0  03:05       0.139        3.96      -0.079
  93-50077             STORAGE     109.87   111.33     0  02:55        1.79        5.74       0.003
  93-50081             STORAGE       3.71     4.97     0  19:43      0.0426        3.95      -0.078
  93-50225             STORAGE      10.45    21.22     0  02:55      0.0991       0.618      -0.145
  93-90357             STORAGE      18.19    18.19     0  02:55       0.177       0.177       0.004
  93-90358             STORAGE      22.77    28.86     0  02:55       0.222        0.42      -0.047
  
  
  **********************
  Node Surcharge Summary
  **********************
  
  Surcharging occurs when water rises above the top of the highest conduit.
  ---------------------------------------------------------------------
                                               Max. Height   Min. Depth
                                   Hours       Above Crown    Below Rim
  Node                 Type      Surcharged           Feet         Feet
  ---------------------------------------------------------------------
  J14                  JUNCTION        1.22          0.000        0.000
  J15                  JUNCTION        2.57          0.000        0.000
  J18                  JUNCTION        2.40          0.000        0.000
  J24                  JUNCTION       13.17          0.000        0.000
  93-49743             STORAGE         3.53          4.239        9.721
  93-49868             STORAGE         0.78          1.392        7.608
  93-49919             STORAGE         3.84          0.596        8.404
  93-50074             STORAGE         5.81          2.242       10.478
  93-50076             STORAGE        18.09          0.371        8.629
  93-50077             STORAGE        23.46          0.662        8.338
  93-50081             STORAGE        22.72          0.646        8.354
  93-50225             STORAGE         2.54          2.266       16.334
  93-90357             STORAGE         0.57          1.003        7.997
  93-90358             STORAGE         1.66          2.642        6.358
  
  
  *********************
  Node Flooding Summary
  *********************
  
  Flooding refers to all water that overflows a node, whether it ponds or not.
  --------------------------------------------------------------------------
                                                             Total   Maximum
                                 Maximum   Time of Max       Flood    Ponded
                        Hours       Rate    Occurrence      Volume     Depth
  Node                 Flooded       CFS   days hr:min    10^6 gal      Feet
  --------------------------------------------------------------------------
  J14                     1.22      3.41      0  03:18       0.079     0.000
  J15                     2.57      6.43      0  03:32       0.319     0.000
  J18                     2.40      5.58      0  03:16       0.221     0.000
  J24                    13.17      2.29      0  07:56       0.509     0.000
  
  
  **********************
  Storage Volume Summary
  **********************
  
  --------------------------------------------------------------------------------------------------
                         Average     Avg  Evap Exfil       Maximum     Max    Time of Max    Maximum
                          Volume    Pcnt  Pcnt  Pcnt        Volume    Pcnt     Occurrence    Outflow
  Storage Unit          1000 ft3    Full  Loss  Loss      1000 ft3    Full    days hr:min        CFS
  --------------------------------------------------------------------------------------------------
  93-49743                 1.679       1     0     0        45.432      16       0  03:16      10.74
  93-49868                 0.048       0     0     0         6.163       5       0  03:07       6.51
  93-49919                 4.028       1     0     0        46.199      10       0  03:27       5.68
  93-49921                93.212       8     0     0       297.490      26       0  08:24       7.82
  93-50074                 7.435       1     0     0        71.232      10       0  03:46       8.85
  93-50076                52.728       5     0     0       114.813      11       0  19:42       4.97
  93-50077                49.242       5     0     0       126.667      12       0  03:57       6.72
  93-50081                 0.911       3     0     0         2.351       8       0  20:01       4.97
  93-50225                 1.528       0     0     0        25.359       4       0  03:32       8.52
  93-90357                 0.086       0     0     0         6.157       8       0  03:06       6.47
  93-90358                 0.299       0     0     0        15.175      11       0  03:16       8.48
  
  
  ***********************
  Outfall Loading Summary
  ***********************
  
  -------------------------------------------------------------------------
                         Flow       Avg       Max       Total         Total
                         Freq      Flow      Flow      Volume           TSS
  Outfall Node           Pcnt       CFS       CFS    10^6 gal           lbs
  -------------------------------------------------------------------------
  ZOF1                  99.82      3.27      6.72       5.723       893.012
  -------------------------------------------------------------------------
  System                99.82      3.27      6.72       5.723       893.012
  
  
  ********************
  Link Flow Summary
  ********************
  
  -----------------------------------------------------------------------------
                                 Maximum  Time of Max   Maximum    Max/    Max/
                                  |Flow|   Occurrence   |Veloc|    Full    Full
  Link                 Type          CFS  days hr:min    ft/sec    Flow   Depth
  -----------------------------------------------------------------------------
  C08                  CONDUIT      5.92     0  02:52      7.64    1.07    1.00
  C09                  CONDUIT      5.68     0  03:27     12.38    0.35    0.71
  C10                  CONDUIT      5.95     0  16:42     10.00    1.07    1.00
  C11                  CONDUIT      4.97     0  19:43      8.08    0.44    0.73
  C12                  CONDUIT      4.97     0  20:01      6.86    0.89    0.87
  C18                  CONDUIT      6.49     0  03:07      8.85    0.86    0.92
  C19                  CONDUIT      6.03     0  02:54      7.82    1.03    1.00
  C21                  CONDUIT      2.57     0  02:52      3.66    1.10    1.00
  C22                  CONDUIT      6.47     0  03:06      5.94    0.24    0.67
  C95-53307            CONDUIT      8.85     0  03:47      4.44    0.01    0.27
  OR34                 ORIFICE      6.51     0  03:06                          
  OR35                 ORIFICE      8.48     0  03:17                          
  OR36                 ORIFICE      8.52     0  03:32                          
  OR38                 ORIFICE      8.85     0  03:46                          
  OR39                 ORIFICE     10.74     0  03:16                          
  OR43                 ORIFICE      6.47     0  03:06                          
  OR44                 ORIFICE      5.68     0  03:27                          
  OR45                 ORIFICE      7.82     0  08:24                          
  OR46                 ORIFICE      4.97     0  19:42                          
  OR47                 ORIFICE      4.97     0  20:01                          
  OR48                 ORIFICE      6.72     0  03:58                          
  
  
  ***************************
  Flow Classification Summary
  ***************************
  
  -------------------------------------------------------------------------------------
                      Adjusted    ---------- Fraction of Time in Flow Class ---------- 
                       /Actual         Up    Down  Sub   Sup   Up    Down  Norm  Inlet 
  Conduit               Length    Dry  Dry   Dry   Crit  Crit  Crit  Crit  Ltd   Ctrl  
  -------------------------------------------------------------------------------------
  C08                     1.00   0.00  0.02  0.00  0.15  0.83  0.00  0.00  0.36  0.00
  C09                     1.00   0.00  0.00  0.00  0.88  0.12  0.00  0.00  0.98  0.00
  C10                     1.00   0.00  0.00  0.00  0.34  0.66  0.00  0.00  0.85  0.00
  C11                     1.00   0.00  0.00  0.00  0.04  0.96  0.00  0.00  1.00  0.00
  C12                     1.00   0.00  0.00  0.00  0.08  0.92  0.00  0.00  0.32  0.00
  C18                     1.00   0.00  0.01  0.00  0.97  0.02  0.00  0.00  0.69  0.00
  C19                     1.00   0.00  0.28  0.00  0.70  0.03  0.00  0.00  0.97  0.00
  C21                     1.00   0.00  0.00  0.00  0.98  0.02  0.00  0.00  0.35  0.00
  C22                     1.00   0.00  0.43  0.00  0.55  0.02  0.00  0.00  0.99  0.00
  C95-53307               1.00   0.00  0.00  0.00  0.97  0.03  0.00  0.00  0.98  0.00
  
  
  *************************
  Conduit Surcharge Summary
  *************************
  
  ----------------------------------------------------------------------------
                                                           Hours        Hours 
                         --------- Hours Full --------   Above Full   Capacity
  Conduit                Both Ends  Upstream  Dnstream   Normal Flow   Limited
  ----------------------------------------------------------------------------
  C08                         2.40      2.40      5.81      0.06         0.01
  C09                         0.01      0.01     21.37      0.01         0.01
  C10                         7.12     13.17     18.09      2.25         0.01
  C11                         0.01      0.01     22.72      0.01         0.01
  C12                         0.01      0.01     23.46      0.01         0.01
  C18                         0.01      0.01      1.66      0.01         0.01
  C19                         1.22      1.22      3.69      0.02         0.01
  C21                         2.41      2.57      3.84      0.35         0.01
  C22                         0.01      0.01      2.54      0.01         0.01
  
  
  ***************************
  Link Pollutant Load Summary
  ***************************
  
  ----------------------------------
                                 TSS
  Link                           lbs
  ----------------------------------
  C08                        112.159
  C09                        163.065
  C10                        583.723
  C11                        609.301
  C12                        618.096
  C18                         40.221
  C19                         69.606
  C21                         60.936
  C22                         35.982
  C95-53307                  278.327
  OR34                        40.221
  OR35                        85.471
  OR36                       125.839
  OR38                       263.148
  OR39                       155.737
  OR43                        35.957
  OR44                       163.050
  OR45                       678.008
  OR46                       609.116
  OR47                       617.908
  OR48                       893.012
  

  Analysis begun on:  Tue Jan 14 19:12:11 2020
  Analysis ended on:  Tue Jan 14 19:12:13 2020
  Total elapsed time: 00:00:02