
  EPA STORM WATER MANAGEMENT MODEL - VERSION 5.1 (Build 5.2.0.dev4)
  --------------------------------------------------------------

  
  ERROR 203: too few items at line 89 of [STORAGE] section:
  P1               100      2          0          TABULAR    A      0         0        0        0       
