
  EPA STORM WATER MANAGEMENT MODEL - VERSION 5.1 (Build 5.2.0.dev4)
  --------------------------------------------------------------

  
  **********************           Volume        Volume
  Rainfall Dependent I/I        acre-feet      10^6 gal
  **********************        ---------     ---------
  Sewershed Rainfall ......        82.478        26.877
  RDII Produced ...........        11.316         3.688
  RDII Ratio ..............         0.137
  
  
  *********************************************************
  NOTE: The summary statistics displayed in this report are
  based on results found at every computational time step,  
  not just on results from each reporting time step.
  *********************************************************
  
  ****************
  Analysis Options
  ****************
  Flow Units ............... CFS
  Process Models:
    Rainfall/Runoff ........ YES
    RDII ................... YES
    Snowmelt ............... NO
    Groundwater ............ NO
    Flow Routing ........... YES
    Ponding Allowed ........ YES
    Water Quality .......... YES
  Infiltration Method ...... GREEN_AMPT
  Flow Routing Method ...... DYNWAVE
  Starting Date ............ 07/05/2014 12:00:00
  Ending Date .............. 07/10/2014 00:05:00
  Antecedent Dry Days ...... 5.0
  Report Time Step ......... 00:01:00
  Wet Time Step ............ 00:01:00
  Dry Time Step ............ 00:01:00
  Routing Time Step ........ 60.00 sec
  Variable Time Step ....... YES
  Maximum Trials ........... 8
  Number of Threads ........ 1
  Head Tolerance ........... 0.005000 ft
  
  
  **************************        Volume         Depth
  Runoff Quantity Continuity     acre-feet        inches
  **************************     ---------       -------
  Total Precipitation ......        60.235         3.510
  Evaporation Loss .........         0.000         0.000
  Infiltration Loss ........        19.135         1.115
  Surface Runoff ...........        40.481         2.359
  Final Storage ............         0.633         0.037
  Continuity Error (%) .....        -0.023
  
  
  **************************           TSS
  Runoff Quality Continuity            lbs
  **************************    ----------
  Initial Buildup ..........      3394.520
  Surface Buildup ..........      2303.524
  Wet Deposition ...........         0.000
  Sweeping Removal .........         0.000
  Infiltration Loss ........         0.000
  BMP Removal ..............         0.000
  Surface Runoff ...........      2375.424
  Remaining Buildup ........      3322.619
  Continuity Error (%) .....         0.000
  
  
  **************************        Volume        Volume
  Flow Routing Continuity        acre-feet      10^6 gal
  **************************     ---------     ---------
  Dry Weather Inflow .......         0.000         0.000
  Wet Weather Inflow .......        40.459        13.184
  Groundwater Inflow .......         0.000         0.000
  RDII Inflow ..............        11.317         3.688
  External Inflow ..........         0.000         0.000
  External Outflow .........        28.925         9.426
  Flooding Loss ............         6.171         2.011
  Evaporation Loss .........         0.000         0.000
  Exfiltration Loss ........         0.000         0.000
  Initial Stored Volume ....         0.000         0.000
  Final Stored Volume ......        16.957         5.526
  Continuity Error (%) .....        -0.536
  
  
  **************************           TSS
  Quality Routing Continuity           lbs
  **************************    ----------
  Dry Weather Inflow .......         0.000
  Wet Weather Inflow .......      2373.919
  Groundwater Inflow .......         0.000
  RDII Inflow ..............         0.000
  External Inflow ..........         0.000
  External Outflow .........      1278.814
  Flooding Loss ............       379.671
  Exfiltration Loss ........         0.000
  Mass Reacted .............         0.000
  Initial Stored Mass ......         0.000
  Final Stored Mass ........       724.317
  Continuity Error (%) .....        -0.374
  
  
  *************************
  Highest Continuity Errors
  *************************
  Node J23 (-4.17%)
  Node 93-49921 (1.24%)
  
  
  ***************************
  Time-Step Critical Elements
  ***************************
  Link C11 (73.49%)
  Link C09 (19.85%)
  Link C22 (5.03%)
  
  
  ********************************
  Highest Flow Instability Indexes
  ********************************
  Link OR47 (15)
  Link C12 (15)
  Link OR43 (3)
  Link C22 (2)
  Link OR34 (2)
  
  
  *************************
  Routing Time Step Summary
  *************************
  Minimum Time Step           :     2.99 sec
  Average Time Step           :    15.99 sec
  Maximum Time Step           :    60.00 sec
  Percent in Steady State     :    -0.00
  Average Iterations per Step :     2.05
  Percent Not Converging      :     0.62
  
  
  ***************************
  Subcatchment Runoff Summary
  ***************************
  
  --------------------------------------------------------------------------------------------------------
                            Total      Total      Total      Total      Total       Total     Peak  Runoff
                           Precip      Runon       Evap      Infil     Runoff      Runoff   Runoff   Coeff
  Subcatchment                 in         in         in         in         in    10^6 gal      CFS
  --------------------------------------------------------------------------------------------------------
  102                        3.51       0.00       0.00       1.30       2.18        0.17    10.97   0.621
  103                        3.51       0.00       0.00       1.68       1.80        0.27    21.03   0.513
  115                        3.51       0.00       0.00       1.80       1.68        0.47    24.09   0.480
  120                        3.51       0.00       0.00       1.37       2.11        0.38    26.22   0.601
  1472                       3.51       0.00       0.00       1.04       2.44        0.21    13.48   0.694
  1497                       3.51       0.00       0.00       0.39       3.06        1.25    66.93   0.873
  1499                       3.51       0.00       0.00       0.14       3.32        2.27   112.79   0.945
  1503                       3.51       0.00       0.00       0.73       2.74        0.10     5.78   0.780
  1506                       3.51       0.00       0.00       1.44       2.04        0.56    38.94   0.581
  1570                       3.51       0.00       0.00       1.94       1.55        0.33    26.49   0.441
  1648                       3.51       0.00       0.00       1.63       1.86        0.14     9.80   0.529
  1736                       3.51       0.00       0.00       1.32       2.16        0.88    59.01   0.614
  1780                       3.51       0.00       0.00       1.78       1.71        0.11     8.09   0.487
  54                         3.51       0.00       0.00       0.37       3.09        3.05   160.77   0.880
  57                         3.51       0.00       0.00       2.16       1.34        0.37    19.82   0.381
  62                         3.51       0.00       0.00       1.80       1.69        0.48    39.44   0.481
  93                         3.51       0.00       0.00       1.32       2.16        0.48    33.44   0.614
  94                         3.51       0.00       0.00       1.77       1.72        0.60    48.62   0.489
  97                         3.51       0.00       0.00       1.48       2.01        1.07    76.37   0.572
  
  
  ****************************
  Subcatchment Washoff Summary
  ****************************
  
  ----------------------------------
                                 TSS
  Subcatchment                   lbs
  ----------------------------------
  102                         33.661
  103                         55.815
  115                         95.852
  120                         77.886
  1472                        40.041
  1497                       200.865
  1499                       347.801
  1503                        17.357
  1506                       114.171
  1570                        67.149
  1648                        27.813
  1736                       176.824
  1780                        22.016
  54                         489.226
  57                          74.749
  62                          98.514
  93                          96.988
  94                         121.107
  97                         217.589
  ----------------------------------
  System                    2375.424
  
  
  ******************
  Node Depth Summary
  ******************
  
  ---------------------------------------------------------------------------------
                                 Average  Maximum  Maximum  Time of Max    Reported
                                   Depth    Depth      HGL   Occurrence   Max Depth
  Node                 Type         Feet     Feet     Feet  days hr:min        Feet
  ---------------------------------------------------------------------------------
  J13                  JUNCTION     0.05     0.74   888.91     0  12:20        0.74
  J14                  JUNCTION     0.08     1.00   882.00     0  11:56        1.00
  J15                  JUNCTION     0.17     1.00   872.00     0  11:19        1.00
  J18                  JUNCTION     0.25     1.00   875.22     0  11:56        1.00
  J19                  JUNCTION     0.13     0.22   858.50     1  01:28        0.22
  J22                  JUNCTION     0.03     0.32   879.32     0  12:22        0.32
  J23                  JUNCTION     0.10     0.26   868.26     0  14:19        0.26
  J24                  JUNCTION     0.46     0.50   846.50     2  00:31        0.50
  J25                  JUNCTION     0.28     0.31   832.81     3  19:45        0.31
  J26                  JUNCTION     0.41     0.62   822.12     0  12:07        0.62
  ZOF1                 OUTFALL      0.00     0.00   810.00     0  00:00        0.00
  93-49743             STORAGE      1.08     9.79   884.01     0  12:38        9.79
  93-49868             STORAGE      0.18     4.44   892.61     0  12:20        4.44
  93-49919             STORAGE      0.85     3.56   871.56     0  14:19        3.56
  93-49921             STORAGE      6.29     7.87   853.87     2  00:30        7.87
  93-50074             STORAGE      3.18     8.47   866.75     1  01:26        8.47
  93-50076             STORAGE      1.94     2.59   835.09     3  19:45        2.59
  93-50077             STORAGE      1.04     3.21   813.21     0  15:16        3.21
  93-50081             STORAGE      0.77     1.72   823.22     0  12:06        1.72
  93-50225             STORAGE      0.51     5.39   876.39     0  15:58        5.39
  93-90357             STORAGE      0.25     5.39   884.39     0  12:22        5.39
  93-90358             STORAGE      0.26     5.09   886.09     0  12:20        5.09
  
  
  *******************
  Node Inflow Summary
  *******************
  
  -------------------------------------------------------------------------------------------------
                                  Maximum  Maximum                  Lateral       Total        Flow
                                  Lateral    Total  Time of Max      Inflow      Inflow     Balance
                                   Inflow   Inflow   Occurrence      Volume      Volume       Error
  Node                 Type           CFS      CFS  days hr:min    10^6 gal    10^6 gal     Percent
  -------------------------------------------------------------------------------------------------
  J13                  JUNCTION      0.00     4.86     0  12:20           0       0.595       0.037
  J14                  JUNCTION      0.00     7.98     0  12:20           0        1.16      -0.010
  J15                  JUNCTION      0.00     6.56     0  15:58           0        1.68      -0.017
  J18                  JUNCTION      0.00     8.45     0  12:38           0        3.21      -0.002
  J19                  JUNCTION      0.00     3.16     1  01:27           0         4.2      -0.084
  J22                  JUNCTION      0.00     3.04     0  12:22           0       0.498      -0.060
  J23                  JUNCTION      0.00     2.39     0  14:19           0        1.93      -4.001
  J24                  JUNCTION      0.00     2.80     2  00:30           0        6.76       0.015
  J25                  JUNCTION      0.00     2.42     3  19:45           0        5.46       0.003
  J26                  JUNCTION      0.00     3.89     0  12:06           0        5.55      -0.014
  ZOF1                 OUTFALL       0.00     6.53     0  15:16           0        9.43       0.000
  93-49743             STORAGE     127.60   127.60     0  12:00        3.21         3.2      -0.002
  93-49868             STORAGE      48.62    48.62     0  12:00       0.595       0.595      -0.017
  93-49919             STORAGE      89.85    91.50     0  12:00        1.28        1.93      -0.127
  93-49921             STORAGE     152.68   156.98     0  12:00        4.17        10.4       1.256
  93-50074             STORAGE     100.38   105.22     0  12:00        1.73         4.2      -0.147
  93-50076             STORAGE      19.82    21.31     0  12:00       0.368        7.13       0.089
  93-50077             STORAGE     161.10   164.36     0  12:00         4.1        9.65       0.008
  93-50081             STORAGE       5.78     6.59     0  12:00      0.0996        5.56       0.042
  93-50225             STORAGE      21.03    28.52     0  12:00       0.274        1.67      -0.131
  93-90357             STORAGE      37.46    37.46     0  12:00       0.498       0.498      -0.002
  93-90358             STORAGE      38.94    43.08     0  12:00       0.561        1.16      -0.011
  
  
  **********************
  Node Surcharge Summary
  **********************
  
  Surcharging occurs when water rises above the top of the highest conduit.
  ---------------------------------------------------------------------
                                               Max. Height   Min. Depth
                                   Hours       Above Crown    Below Rim
  Node                 Type      Surcharged           Feet         Feet
  ---------------------------------------------------------------------
  J14                  JUNCTION        3.92          0.000        0.000
  J15                  JUNCTION        8.85          0.000        0.000
  J18                  JUNCTION       11.62          0.000        0.000
  
  
  *********************
  Node Flooding Summary
  *********************
  
  Flooding refers to all water that overflows a node, whether it ponds or not.
  --------------------------------------------------------------------------
                                                             Total   Maximum
                                 Maximum   Time of Max       Flood    Ponded
                        Hours       Rate    Occurrence      Volume     Depth
  Node                 Flooded       CFS   days hr:min    10^6 gal      Feet
  --------------------------------------------------------------------------
  J14                     3.92      3.30      0  12:30       0.254     0.000
  J15                     8.85      5.65      0  15:37       1.025     0.000
  J18                    11.62      3.93      0  12:47       0.732     0.000
  
  
  **********************
  Storage Volume Summary
  **********************
  
  --------------------------------------------------------------------------------------------------
                         Average     Avg  Evap Exfil       Maximum     Max    Time of Max    Maximum
                          Volume    Pcnt  Pcnt  Pcnt        Volume    Pcnt     Occurrence    Outflow
  Storage Unit          1000 ft3    Full  Loss  Loss      1000 ft3    Full    days hr:min        CFS
  --------------------------------------------------------------------------------------------------
  93-49743                 9.550       3     0     0       130.583      47       0  12:38       8.45
  93-49868                 0.842       1     0     0        36.745      30       0  12:20       4.86
  93-49919                29.664       7     0     0       140.668      31       0  14:19       2.39
  93-49921               646.242      58     0     0       836.741      75       2  00:30       2.80
  93-50074                95.449      14     0     0       300.617      44       1  01:26       3.16
  93-50076               168.821      15     0     0       228.378      21       3  19:45       2.42
  93-50077                78.387       7     0     0       257.903      25       0  15:16       6.53
  93-50081                 0.744       3     0     0         2.516       9       0  12:06       3.89
  93-50225                 4.135       1     0     0        51.786       9       0  15:58       6.56
  93-90357                 1.122       2     0     0        32.493      44       0  12:22       3.04
  93-90358                 1.018       1     0     0        32.442      23       0  12:20       7.98
  
  
  ***********************
  Outfall Loading Summary
  ***********************
  
  -------------------------------------------------------------------------
                         Flow       Avg       Max       Total         Total
                         Freq      Flow      Flow      Volume           TSS
  Outfall Node           Pcnt       CFS       CFS    10^6 gal           lbs
  -------------------------------------------------------------------------
  ZOF1                  99.85      3.40      6.53       9.425      1278.884
  -------------------------------------------------------------------------
  System                99.85      3.40      6.53       9.425      1278.884
  
  
  ********************
  Link Flow Summary
  ********************
  
  -----------------------------------------------------------------------------
                                 Maximum  Time of Max   Maximum    Max/    Max/
                                  |Flow|   Occurrence   |Veloc|    Full    Full
  Link                 Type          CFS  days hr:min    ft/sec    Flow   Depth
  -----------------------------------------------------------------------------
  C08                  CONDUIT      5.39     0  11:55      6.99    0.97    1.00
  C09                  CONDUIT     13.91     0  03:24    >50.00    0.87    0.63
  C10                  CONDUIT      2.80     2  00:31      6.51    0.50    0.75
  C11                  CONDUIT      2.42     3  19:45      5.09    0.21    0.60
  C12                  CONDUIT      3.88     0  12:07      6.95    0.70    0.81
  C18                  CONDUIT      4.86     0  12:21      6.72    0.64    0.87
  C19                  CONDUIT      5.67     0  11:56      7.37    0.97    1.00
  C21                  CONDUIT      2.28     0  11:12      3.03    0.98    1.00
  C22                  CONDUIT      3.04     0  12:22    >50.00    0.11    0.61
  C95-53307            CONDUIT      3.16     1  01:28     18.71    0.00    0.52
  OR34                 ORIFICE      4.86     0  12:20                          
  OR35                 ORIFICE      7.98     0  12:20                          
  OR36                 ORIFICE      6.56     0  15:58                          
  OR38                 ORIFICE      3.16     1  01:27                          
  OR39                 ORIFICE      8.45     0  12:38                          
  OR43                 ORIFICE      3.04     0  12:22                          
  OR44                 ORIFICE      2.39     0  14:19                          
  OR45                 ORIFICE      2.80     2  00:30                          
  OR46                 ORIFICE      2.42     3  19:45                          
  OR47                 ORIFICE      3.89     0  12:06                          
  OR48                 ORIFICE      6.53     0  15:16                          
  
  
  ***************************
  Flow Classification Summary
  ***************************
  
  -------------------------------------------------------------------------------------
                      Adjusted    ---------- Fraction of Time in Flow Class ---------- 
                       /Actual         Up    Down  Sub   Sup   Up    Down  Norm  Inlet 
  Conduit               Length    Dry  Dry   Dry   Crit  Crit  Crit  Crit  Ltd   Ctrl  
  -------------------------------------------------------------------------------------
  C08                     1.00   0.00  0.00  0.00  0.68  0.32  0.00  0.00  0.84  0.00
  C09                     1.00   0.00  0.01  0.00  0.83  0.16  0.00  0.00  0.97  0.00
  C10                     1.00   0.00  0.00  0.00  0.91  0.08  0.00  0.00  0.89  0.00
  C11                     1.00   0.00  0.00  0.00  0.04  0.96  0.00  0.00  0.99  0.00
  C12                     1.00   0.00  0.00  0.00  0.37  0.63  0.00  0.00  0.66  0.00
  C18                     1.00   0.00  0.00  0.00  0.95  0.04  0.00  0.00  0.41  0.00
  C19                     1.00   0.00  0.32  0.00  0.67  0.01  0.00  0.00  0.94  0.00
  C21                     1.00   0.00  0.00  0.00  0.99  0.01  0.00  0.00  0.82  0.00
  C22                     1.00   0.00  0.48  0.00  0.52  0.00  0.00  0.00  0.99  0.00
  C95-53307               1.00   0.00  0.00  0.00  0.99  0.01  0.00  0.00  0.98  0.00
  
  
  *************************
  Conduit Surcharge Summary
  *************************
  
  ----------------------------------------------------------------------------
                                                           Hours        Hours 
                         --------- Hours Full --------   Above Full   Capacity
  Conduit                Both Ends  Upstream  Dnstream   Normal Flow   Limited
  ----------------------------------------------------------------------------
  C08                        11.62     11.62     60.75      0.01         0.01
  C09                         0.01      0.01     98.55      0.01         0.01
  C10                         0.01      0.01     89.00      0.01         0.01
  C11                         0.01      0.01      0.51      0.01         0.01
  C12                         0.01      0.01     29.82      0.01         0.01
  C18                         0.01      0.01      4.83      0.01         0.01
  C19                         3.92      3.92     11.64      0.01         0.01
  C21                         8.85      8.85     30.65      0.01         0.01
  C22                         0.01      0.01      8.81      0.01         0.01
  C95-53307                   0.01      0.01     58.71      0.01         0.01
  
  
  ***************************
  Link Pollutant Load Summary
  ***************************
  
  ----------------------------------
                                 TSS
  Link                           lbs
  ----------------------------------
  C08                        281.754
  C09                        392.577
  C10                        952.706
  C11                        803.782
  C12                        820.133
  C18                        121.018
  C19                        183.497
  C21                        132.090
  C22                        100.884
  C95-53307                  599.245
  OR34                       121.083
  OR35                       235.172
  OR36                       340.489
  OR38                       578.498
  OR39                       400.397
  OR43                       100.757
  OR44                       389.154
  OR45                       952.689
  OR46                       803.778
  OR47                       819.893
  OR48                      1278.884
  

  Analysis begun on:  Mon Apr  1 18:20:37 2019
  Analysis ended on:  Mon Apr  1 18:20:42 2019
  Total elapsed time: 00:00:05