
  EPA STORM WATER MANAGEMENT MODEL - VERSION 5.1 (Build 5.2.0.dev4)
  --------------------------------------------------------------

  
  **********************           Volume        Volume
  Rainfall Dependent I/I        acre-feet      10^6 gal
  **********************        ---------     ---------
  Sewershed Rainfall ......       112.915        36.795
  RDII Produced ...........        15.882         5.175
  RDII Ratio ..............         0.141
  
  
  *********************************************************
  NOTE: The summary statistics displayed in this report are
  based on results found at every computational time step,  
  not just on results from each reporting time step.
  *********************************************************
  
  ****************
  Analysis Options
  ****************
  Flow Units ............... CFS
  Process Models:
    Rainfall/Runoff ........ YES
    RDII ................... YES
    Snowmelt ............... NO
    Groundwater ............ NO
    Flow Routing ........... YES
    Ponding Allowed ........ YES
    Water Quality .......... YES
  Infiltration Method ...... GREEN_AMPT
  Flow Routing Method ...... DYNWAVE
  Starting Date ............ 07/05/2014 12:00:00
  Ending Date .............. 07/10/2014 00:05:00
  Antecedent Dry Days ...... 5.0
  Report Time Step ......... 00:01:00
  Wet Time Step ............ 00:01:00
  Dry Time Step ............ 00:01:00
  Routing Time Step ........ 60.00 sec
  Variable Time Step ....... YES
  Maximum Trials ........... 8
  Number of Threads ........ 1
  Head Tolerance ........... 0.005000 ft
  
  
  **************************        Volume         Depth
  Runoff Quantity Continuity     acre-feet        inches
  **************************     ---------       -------
  Total Precipitation ......        82.464         4.805
  Evaporation Loss .........         0.000         0.000
  Infiltration Loss ........        24.275         1.414
  Surface Runoff ...........        57.575         3.355
  Final Storage ............         0.633         0.037
  Continuity Error (%) .....        -0.024
  
  
  **************************           TSS
  Runoff Quality Continuity            lbs
  **************************    ----------
  Initial Buildup ..........      3394.520
  Surface Buildup ..........      2690.886
  Wet Deposition ...........         0.000
  Sweeping Removal .........         0.000
  Infiltration Loss ........         0.000
  BMP Removal ..............         0.000
  Surface Runoff ...........      2841.383
  Remaining Buildup ........      3244.023
  Continuity Error (%) .....         0.000
  
  
  **************************        Volume        Volume
  Flow Routing Continuity        acre-feet      10^6 gal
  **************************     ---------     ---------
  Dry Weather Inflow .......         0.000         0.000
  Wet Weather Inflow .......        57.529        18.747
  Groundwater Inflow .......         0.000         0.000
  RDII Inflow ..............        15.882         5.175
  External Inflow ..........         0.000         0.000
  External Outflow .........        35.861        11.686
  Flooding Loss ............        12.654         4.124
  Evaporation Loss .........         0.000         0.000
  Exfiltration Loss ........         0.000         0.000
  Initial Stored Volume ....         0.000         0.000
  Final Stored Volume ......        25.112         8.183
  Continuity Error (%) .....        -0.296
  
  
  **************************           TSS
  Quality Routing Continuity           lbs
  **************************    ----------
  Dry Weather Inflow .......         0.000
  Wet Weather Inflow .......      2838.351
  Groundwater Inflow .......         0.000
  RDII Inflow ..............         0.000
  External Inflow ..........         0.000
  External Outflow .........      1324.808
  Flooding Loss ............       636.093
  Exfiltration Loss ........         0.000
  Mass Reacted .............         0.000
  Initial Stored Mass ......         0.000
  Final Stored Mass ........       882.437
  Continuity Error (%) .....        -0.176
  
  
  *************************
  Highest Continuity Errors
  *************************
  Node J23 (-2.61%)
  Node 93-49921 (1.17%)
  
  
  ***************************
  Time-Step Critical Elements
  ***************************
  Link C11 (73.70%)
  Link C09 (18.10%)
  Link C22 (6.94%)
  
  
  ********************************
  Highest Flow Instability Indexes
  ********************************
  Link OR47 (13)
  Link C12 (12)
  Link OR43 (2)
  Link OR34 (2)
  Link C22 (2)
  
  
  *************************
  Routing Time Step Summary
  *************************
  Minimum Time Step           :     1.45 sec
  Average Time Step           :    14.90 sec
  Maximum Time Step           :    60.00 sec
  Percent in Steady State     :    -0.00
  Average Iterations per Step :     2.05
  Percent Not Converging      :     0.60
  
  
  ***************************
  Subcatchment Runoff Summary
  ***************************
  
  --------------------------------------------------------------------------------------------------------
                            Total      Total      Total      Total      Total       Total     Peak  Runoff
                           Precip      Runon       Evap      Infil     Runoff      Runoff   Runoff   Coeff
  Subcatchment                 in         in         in         in         in    10^6 gal      CFS
  --------------------------------------------------------------------------------------------------------
  102                        4.80       0.00       0.00       1.65       3.13        0.24    16.38   0.650
  103                        4.80       0.00       0.00       2.14       2.65        0.40    31.80   0.551
  115                        4.80       0.00       0.00       2.26       2.52        0.71    37.95   0.524
  120                        4.80       0.00       0.00       1.74       3.04        0.55    38.93   0.632
  1472                       4.80       0.00       0.00       1.32       3.45        0.30    19.50   0.718
  1497                       4.80       0.00       0.00       0.50       4.25        1.73    94.03   0.885
  1499                       4.80       0.00       0.00       0.17       4.58        3.14   157.91   0.952
  1503                       4.80       0.00       0.00       0.92       3.84        0.14     8.25   0.799
  1506                       4.80       0.00       0.00       1.83       2.95        0.81    58.36   0.613
  1570                       4.80       0.00       0.00       2.46       2.33        0.50    41.55   0.484
  1648                       4.80       0.00       0.00       2.06       2.72        0.20    15.01   0.566
  1736                       4.80       0.00       0.00       1.68       3.09        1.26    87.59   0.644
  1780                       4.80       0.00       0.00       2.25       2.53        0.16    12.58   0.527
  54                         4.80       0.00       0.00       0.47       4.28        4.23   226.50   0.891
  57                         4.80       0.00       0.00       2.73       2.06        0.57    32.30   0.429
  62                         4.80       0.00       0.00       2.29       2.50        0.72    59.74   0.520
  93                         4.80       0.00       0.00       1.68       3.09        0.69    49.02   0.644
  94                         4.80       0.00       0.00       2.25       2.53        0.88    72.80   0.527
  97                         4.80       0.00       0.00       1.87       2.90        1.55   113.91   0.604
  
  
  ****************************
  Subcatchment Washoff Summary
  ****************************
  
  ----------------------------------
                                 TSS
  Subcatchment                   lbs
  ----------------------------------
  102                         38.357
  103                         71.928
  115                        130.324
  120                         89.504
  1472                        44.847
  1497                       226.204
  1499                       393.067
  1503                        19.457
  1506                       134.345
  1570                        95.967
  1648                        35.024
  1736                       201.777
  1780                        29.491
  54                         551.130
  57                         115.292
  62                         133.321
  93                         110.655
  94                         161.639
  97                         259.053
  ----------------------------------
  System                    2841.383
  
  
  ******************
  Node Depth Summary
  ******************
  
  ---------------------------------------------------------------------------------
                                 Average  Maximum  Maximum  Time of Max    Reported
                                   Depth    Depth      HGL   Occurrence   Max Depth
  Node                 Type         Feet     Feet     Feet  days hr:min        Feet
  ---------------------------------------------------------------------------------
  J13                  JUNCTION     0.07     1.00   889.17     0  12:04        1.00
  J14                  JUNCTION     0.10     1.00   882.00     0  11:52        1.00
  J15                  JUNCTION     0.20     1.00   872.00     0  10:31        1.00
  J18                  JUNCTION     0.30     1.00   875.22     0  11:50        1.00
  J19                  JUNCTION     0.15     0.23   858.51     1  05:10        0.23
  J22                  JUNCTION     0.04     0.35   879.35     0  12:27        0.35
  J23                  JUNCTION     0.10     0.28   868.28     0  13:01        0.28
  J24                  JUNCTION     0.50     0.54   846.54     2  04:27        0.54
  J25                  JUNCTION     0.29     0.33   832.83     4  06:53        0.33
  J26                  JUNCTION     0.44     0.73   822.23     0  12:08        0.73
  ZOF1                 OUTFALL      0.00     0.00   810.00     0  00:00        0.00
  93-49743             STORAGE      1.75    12.81   887.03     0  12:49       12.81
  93-49868             STORAGE      0.29     5.97   894.14     0  12:24        5.97
  93-49919             STORAGE      1.04     4.67   872.67     0  13:01        4.67
  93-49921             STORAGE      8.12     9.77   855.77     2  04:26        9.77
  93-50074             STORAGE      4.31     9.74   868.02     1  05:09        9.74
  93-50076             STORAGE      2.39     3.24   835.74     4  06:53        3.24
  93-50077             STORAGE      1.58     4.55   814.55     0  17:20        4.55
  93-50081             STORAGE      0.87     2.35   823.85     0  12:07        2.35
  93-50225             STORAGE      0.71     6.03   877.03     0  16:19        6.03
  93-90357             STORAGE      0.43     7.65   886.65     0  12:26        7.65
  93-90358             STORAGE      0.38     6.14   887.14     0  12:20        6.14
  
  
  *******************
  Node Inflow Summary
  *******************
  
  -------------------------------------------------------------------------------------------------
                                  Maximum  Maximum                  Lateral       Total        Flow
                                  Lateral    Total  Time of Max      Inflow      Inflow     Balance
                                   Inflow   Inflow   Occurrence      Volume      Volume       Error
  Node                 Type           CFS      CFS  days hr:min    10^6 gal    10^6 gal     Percent
  -------------------------------------------------------------------------------------------------
  J13                  JUNCTION      0.00     5.63     0  12:24           0       0.877       0.003
  J14                  JUNCTION      0.00     8.94     0  12:20           0        1.64      -0.007
  J15                  JUNCTION      0.00     7.96     0  14:07           0        2.42      -0.012
  J18                  JUNCTION      0.00     9.80     0  12:49           0         4.6      -0.003
  J19                  JUNCTION      0.00     3.39     1  05:09           0        5.32      -0.061
  J22                  JUNCTION      0.00     3.65     0  12:27           0       0.737       0.011
  J23                  JUNCTION      0.00     2.75     0  13:01           0        2.26      -2.547
  J24                  JUNCTION      0.00     3.13     2  04:26           0        7.77       0.016
  J25                  JUNCTION      0.00     2.73     4  06:53           0        6.15       0.003
  J26                  JUNCTION      0.00     4.72     0  12:06           0        6.29       0.033
  ZOF1                 OUTFALL       0.00     7.78     0  17:20           0        11.7       0.000
  93-49743             STORAGE     192.69   192.69     0  12:00         4.6         4.6       0.001
  93-49868             STORAGE      72.80    72.80     0  12:00       0.877       0.876      -0.001
  93-49919             STORAGE     133.41   134.50     0  12:00        1.85        2.39      -0.118
  93-49921             STORAGE     218.39   223.35     0  12:00        5.83        13.5       1.189
  93-50074             STORAGE     143.05   147.60     0  12:00        2.42        5.31      -0.137
  93-50076             STORAGE      32.30    34.06     0  12:00       0.567        8.34       0.095
  93-50077             STORAGE     227.04   231.09     0  12:00         5.7          12       0.007
  93-50081             STORAGE       8.25     9.25     0  12:00        0.14        6.29      -0.004
  93-50225             STORAGE      31.80    39.45     0  12:00       0.403        2.28      -0.112
  93-90357             STORAGE      57.93    57.93     0  12:00       0.737       0.737      -0.003
  93-90358             STORAGE      58.36    62.96     0  12:00       0.811        1.64      -0.006
  
  
  **********************
  Node Surcharge Summary
  **********************
  
  Surcharging occurs when water rises above the top of the highest conduit.
  ---------------------------------------------------------------------
                                               Max. Height   Min. Depth
                                   Hours       Above Crown    Below Rim
  Node                 Type      Surcharged           Feet         Feet
  ---------------------------------------------------------------------
  J13                  JUNCTION        1.96          0.000        0.000
  J14                  JUNCTION        5.67          0.000        0.000
  J15                  JUNCTION       13.30          0.000        0.000
  J18                  JUNCTION       16.59          0.000        0.000
  
  
  *********************
  Node Flooding Summary
  *********************
  
  Flooding refers to all water that overflows a node, whether it ponds or not.
  --------------------------------------------------------------------------
                                                             Total   Maximum
                                 Maximum   Time of Max       Flood    Ponded
                        Hours       Rate    Occurrence      Volume     Depth
  Node                 Flooded       CFS   days hr:min    10^6 gal      Feet
  --------------------------------------------------------------------------
  J13                     1.96      1.60      0  12:22       0.050     0.000
  J14                     5.67      4.56      0  12:26       0.497     0.000
  J15                    13.29      7.96      0  14:07       1.876     0.000
  J18                    16.59      5.64      0  13:03       1.700     0.000
  
  
  **********************
  Storage Volume Summary
  **********************
  
  --------------------------------------------------------------------------------------------------
                         Average     Avg  Evap Exfil       Maximum     Max    Time of Max    Maximum
                          Volume    Pcnt  Pcnt  Pcnt        Volume    Pcnt     Occurrence    Outflow
  Storage Unit          1000 ft3    Full  Loss  Loss      1000 ft3    Full    days hr:min        CFS
  --------------------------------------------------------------------------------------------------
  93-49743                20.557       7     0     0       209.021      76       0  12:49       9.80
  93-49868                 1.933       2     0     0        60.159      49       0  12:24       5.63
  93-49919                37.939       8     0     0       194.808      43       0  13:01       3.85
  93-49921               882.866      79     0     0      1092.570      97       2  04:26       3.13
  93-50074               141.931      21     0     0       379.475      55       1  05:09       3.39
  93-50076               211.208      19     0     0       291.875      27       4  06:53       2.73
  93-50077               123.767      12     0     0       383.158      37       0  17:20       7.78
  93-50081                 0.909       3     0     0         4.110      15       0  12:07       4.72
  93-50225                 6.577       1     0     0        66.452      12       0  16:19       7.03
  93-90357                 2.385       3     0     0        52.902      71       0  12:26       3.65
  93-90358                 1.961       1     0     0        50.338      36       0  12:20       8.94
  
  
  ***********************
  Outfall Loading Summary
  ***********************
  
  -------------------------------------------------------------------------
                         Flow       Avg       Max       Total         Total
                         Freq      Flow      Flow      Volume           TSS
  Outfall Node           Pcnt       CFS       CFS    10^6 gal           lbs
  -------------------------------------------------------------------------
  ZOF1                  99.89      4.17      7.78      11.685      1324.883
  -------------------------------------------------------------------------
  System                99.89      4.17      7.78      11.685      1324.883
  
  
  ********************
  Link Flow Summary
  ********************
  
  -----------------------------------------------------------------------------
                                 Maximum  Time of Max   Maximum    Max/    Max/
                                  |Flow|   Occurrence   |Veloc|    Full    Full
  Link                 Type          CFS  days hr:min    ft/sec    Flow   Depth
  -----------------------------------------------------------------------------
  C08                  CONDUIT      5.27     0  11:49      6.85    0.95    1.00
  C09                  CONDUIT     19.91     0  02:55    >50.00    1.24    0.64
  C10                  CONDUIT      3.13     2  04:27      6.61    0.56    0.77
  C11                  CONDUIT      2.73     4  06:53      5.09    0.24    0.67
  C12                  CONDUIT      4.69     0  12:08      6.50    0.84    0.86
  C18                  CONDUIT      5.07     0  14:03      6.71    0.67    1.00
  C19                  CONDUIT      5.55     0  11:51      7.22    0.95    1.00
  C21                  CONDUIT      2.21     0  10:22      2.97    0.95    1.00
  C22                  CONDUIT      3.65     0  12:27      4.99    0.13    0.62
  C95-53307            CONDUIT      3.39     1  05:10     18.71    0.00    0.52
  OR34                 ORIFICE      5.63     0  12:24                          
  OR35                 ORIFICE      8.94     0  12:20                          
  OR36                 ORIFICE      7.03     0  16:19                          
  OR38                 ORIFICE      3.39     1  05:09                          
  OR39                 ORIFICE      9.80     0  12:49                          
  OR43                 ORIFICE      3.65     0  12:27                          
  OR44                 ORIFICE      2.75     0  13:01                          
  OR45                 ORIFICE      3.13     2  04:26                          
  OR46                 ORIFICE      2.73     4  06:53                          
  OR47                 ORIFICE      4.72     0  12:06                          
  OR48                 ORIFICE      7.78     0  17:20                          
  
  
  ***************************
  Flow Classification Summary
  ***************************
  
  -------------------------------------------------------------------------------------
                      Adjusted    ---------- Fraction of Time in Flow Class ---------- 
                       /Actual         Up    Down  Sub   Sup   Up    Down  Norm  Inlet 
  Conduit               Length    Dry  Dry   Dry   Crit  Crit  Crit  Crit  Ltd   Ctrl  
  -------------------------------------------------------------------------------------
  C08                     1.00   0.00  0.00  0.00  0.78  0.22  0.00  0.00  0.81  0.00
  C09                     1.00   0.00  0.01  0.00  0.81  0.19  0.00  0.00  0.97  0.00
  C10                     1.00   0.00  0.00  0.00  0.94  0.06  0.00  0.00  0.90  0.00
  C11                     1.00   0.00  0.00  0.00  0.04  0.96  0.00  0.00  1.00  0.00
  C12                     1.00   0.00  0.00  0.00  0.47  0.53  0.00  0.00  0.97  0.00
  C18                     1.00   0.00  0.00  0.00  0.96  0.04  0.00  0.00  0.39  0.00
  C19                     1.00   0.00  0.33  0.00  0.66  0.01  0.00  0.00  0.93  0.00
  C21                     1.00   0.00  0.00  0.00  0.99  0.01  0.00  0.00  0.80  0.00
  C22                     1.00   0.00  0.48  0.00  0.52  0.00  0.00  0.00  0.99  0.00
  C95-53307               1.00   0.00  0.00  0.00  0.99  0.00  0.00  0.00  0.98  0.00
  
  
  *************************
  Conduit Surcharge Summary
  *************************
  
  ----------------------------------------------------------------------------
                                                           Hours        Hours 
                         --------- Hours Full --------   Above Full   Capacity
  Conduit                Both Ends  Upstream  Dnstream   Normal Flow   Limited
  ----------------------------------------------------------------------------
  C08                        16.59     16.59     73.13      0.01         0.01
  C09                         0.01      0.01    100.02      0.05         0.01
  C10                         0.01      0.01     95.09      0.01         0.01
  C11                         0.01      0.01     30.78      0.01         0.01
  C12                         0.01      0.01     42.35      0.01         0.01
  C18                         1.96      1.96      6.85      0.01         0.01
  C19                         5.67      5.67     16.01      0.01         0.01
  C21                        13.29     13.29     35.45      0.01         0.01
  C22                         0.01      0.01     12.11      0.01         0.01
  C95-53307                   0.01      0.01     90.17      0.01         0.01
  
  
  ***************************
  Link Pollutant Load Summary
  ***************************
  
  ----------------------------------
                                 TSS
  Link                           lbs
  ----------------------------------
  C08                        283.103
  C09                        377.450
  C10                        916.863
  C11                        789.175
  C12                        807.616
  C18                        151.464
  C19                        196.293
  C21                        119.791
  C22                        134.346
  C95-53307                  638.767
  OR34                       161.545
  OR35                       285.527
  OR36                       402.093
  OR38                       618.004
  OR39                       485.956
  OR43                       134.227
  OR44                       372.725
  OR45                       916.762
  OR46                       789.141
  OR47                       807.735
  OR48                      1324.883
  

  Analysis begun on:  Mon Apr  1 18:20:16 2019
  Analysis ended on:  Mon Apr  1 18:20:21 2019
  Total elapsed time: 00:00:05