
  EPA STORM WATER MANAGEMENT MODEL - VERSION 5.1 (Build 5.2.0.dev4)
  --------------------------------------------------------------

  
  **********************           Volume        Volume
  Rainfall Dependent I/I        acre-feet      10^6 gal
  **********************        ---------     ---------
  Sewershed Rainfall ......        78.867        25.700
  RDII Produced ...........        10.775         3.511
  RDII Ratio ..............         0.137
  
  
  *********************************************************
  NOTE: The summary statistics displayed in this report are
  based on results found at every computational time step,  
  not just on results from each reporting time step.
  *********************************************************
  
  ****************
  Analysis Options
  ****************
  Flow Units ............... CFS
  Process Models:
    Rainfall/Runoff ........ YES
    RDII ................... YES
    Snowmelt ............... NO
    Groundwater ............ NO
    Flow Routing ........... YES
    Ponding Allowed ........ YES
    Water Quality .......... YES
  Infiltration Method ...... GREEN_AMPT
  Flow Routing Method ...... DYNWAVE
  Starting Date ............ 07/05/2014 12:00:00
  Ending Date .............. 07/10/2014 00:05:00
  Antecedent Dry Days ...... 5.0
  Report Time Step ......... 00:01:00
  Wet Time Step ............ 00:01:00
  Dry Time Step ............ 00:01:00
  Routing Time Step ........ 60.00 sec
  Variable Time Step ....... YES
  Maximum Trials ........... 8
  Number of Threads ........ 1
  Head Tolerance ........... 0.005000 ft
  
  
  **************************        Volume         Depth
  Runoff Quantity Continuity     acre-feet        inches
  **************************     ---------       -------
  Total Precipitation ......        57.598         3.356
  Evaporation Loss .........         0.000         0.000
  Infiltration Loss ........        18.502         1.078
  Surface Runoff ...........        38.476         2.242
  Final Storage ............         0.633         0.037
  Continuity Error (%) .....        -0.023
  
  
  **************************           TSS
  Runoff Quality Continuity            lbs
  **************************    ----------
  Initial Buildup ..........      3394.520
  Surface Buildup ..........      2231.379
  Wet Deposition ...........         0.000
  Sweeping Removal .........         0.000
  Infiltration Loss ........         0.000
  BMP Removal ..............         0.000
  Surface Runoff ...........      2292.540
  Remaining Buildup ........      3333.359
  Continuity Error (%) .....         0.000
  
  
  **************************        Volume        Volume
  Flow Routing Continuity        acre-feet      10^6 gal
  **************************     ---------     ---------
  Dry Weather Inflow .......         0.000         0.000
  Wet Weather Inflow .......        38.446        12.528
  Groundwater Inflow .......         0.000         0.000
  RDII Inflow ..............        10.775         3.511
  External Inflow ..........         0.000         0.000
  External Outflow .........        28.021         9.131
  Flooding Loss ............         5.521         1.799
  Evaporation Loss .........         0.000         0.000
  Exfiltration Loss ........         0.000         0.000
  Initial Stored Volume ....         0.000         0.000
  Final Stored Volume ......        15.867         5.170
  Continuity Error (%) .....        -0.379
  
  
  **************************           TSS
  Quality Routing Continuity           lbs
  **************************    ----------
  Dry Weather Inflow .......         0.000
  Wet Weather Inflow .......      2290.533
  Groundwater Inflow .......         0.000
  RDII Inflow ..............         0.000
  External Inflow ..........         0.000
  External Outflow .........      1268.841
  Flooding Loss ............       342.586
  Exfiltration Loss ........         0.000
  Mass Reacted .............         0.000
  Initial Stored Mass ......         0.000
  Final Stored Mass ........       689.281
  Continuity Error (%) .....        -0.444
  
  
  *************************
  Highest Continuity Errors
  *************************
  Node J23 (-2.46%)
  Node 93-49921 (1.16%)
  
  
  ***************************
  Time-Step Critical Elements
  ***************************
  Link C11 (73.64%)
  Link C09 (19.86%)
  Link C22 (4.81%)
  
  
  ********************************
  Highest Flow Instability Indexes
  ********************************
  Link OR47 (16)
  Link C12 (15)
  Link OR43 (3)
  Link C22 (3)
  Link OR34 (2)
  
  
  *************************
  Routing Time Step Summary
  *************************
  Minimum Time Step           :     5.82 sec
  Average Time Step           :    16.14 sec
  Maximum Time Step           :    60.00 sec
  Percent in Steady State     :     0.00
  Average Iterations per Step :     2.05
  Percent Not Converging      :     0.56
  
  
  ***************************
  Subcatchment Runoff Summary
  ***************************
  
  --------------------------------------------------------------------------------------------------------
                            Total      Total      Total      Total      Total       Total     Peak  Runoff
                           Precip      Runon       Evap      Infil     Runoff      Runoff   Runoff   Coeff
  Subcatchment                 in         in         in         in         in    10^6 gal      CFS
  --------------------------------------------------------------------------------------------------------
  102                        3.36       0.00       0.00       1.26       2.07        0.16    10.32   0.616
  103                        3.36       0.00       0.00       1.63       1.70        0.26    19.73   0.508
  115                        3.36       0.00       0.00       1.75       1.59        0.44    22.54   0.473
  120                        3.36       0.00       0.00       1.33       2.00        0.36    24.69   0.596
  1472                       3.36       0.00       0.00       1.00       2.32        0.20    12.75   0.691
  1497                       3.36       0.00       0.00       0.38       2.92        1.19    63.70   0.871
  1499                       3.36       0.00       0.00       0.13       3.17        2.17   107.45   0.944
  1503                       3.36       0.00       0.00       0.70       2.61        0.09     5.48   0.777
  1506                       3.36       0.00       0.00       1.39       1.93        0.53    36.58   0.576
  1570                       3.36       0.00       0.00       1.88       1.46        0.31    24.71   0.434
  1648                       3.36       0.00       0.00       1.57       1.76        0.13     9.17   0.524
  1736                       3.36       0.00       0.00       1.28       2.05        0.83    55.53   0.609
  1780                       3.36       0.00       0.00       1.72       1.62        0.10     7.55   0.481
  54                         3.36       0.00       0.00       0.36       2.95        2.91   152.93   0.878
  57                         3.36       0.00       0.00       2.08       1.26        0.35    18.46   0.374
  62                         3.36       0.00       0.00       1.74       1.59        0.46    36.96   0.475
  93                         3.36       0.00       0.00       1.28       2.05        0.46    31.55   0.610
  94                         3.36       0.00       0.00       1.71       1.62        0.56    45.66   0.483
  97                         3.36       0.00       0.00       1.43       1.90        1.01    71.81   0.566
  
  
  ****************************
  Subcatchment Washoff Summary
  ****************************
  
  ----------------------------------
                                 TSS
  Subcatchment                   lbs
  ----------------------------------
  102                         32.433
  103                         52.788
  115                         90.362
  120                         73.890
  1472                        39.118
  1497                       197.871
  1499                       342.433
  1503                        17.110
  1506                       108.215
  1570                        63.270
  1648                        26.310
  1736                       169.324
  1780                        20.786
  54                         481.900
  57                          70.225
  62                          92.990
  93                          92.930
  94                         114.370
  97                         206.214
  ----------------------------------
  System                    2292.540
  
  
  ******************
  Node Depth Summary
  ******************
  
  ---------------------------------------------------------------------------------
                                 Average  Maximum  Maximum  Time of Max    Reported
                                   Depth    Depth      HGL   Occurrence   Max Depth
  Node                 Type         Feet     Feet     Feet  days hr:min        Feet
  ---------------------------------------------------------------------------------
  J13                  JUNCTION     0.04     0.69   888.86     0  12:20        0.69
  J14                  JUNCTION     0.08     1.00   882.00     0  11:57        1.00
  J15                  JUNCTION     0.17     1.00   872.00     0  11:24        1.00
  J18                  JUNCTION     0.24     1.00   875.22     0  11:57        1.00
  J19                  JUNCTION     0.13     0.22   858.50     1  01:02        0.22
  J22                  JUNCTION     0.03     0.31   879.31     0  12:22        0.31
  J23                  JUNCTION     0.09     0.26   868.26     0  14:42        0.26
  J24                  JUNCTION     0.45     0.50   846.50     1  23:51        0.50
  J25                  JUNCTION     0.27     0.31   832.81     3  18:05        0.31
  J26                  JUNCTION     0.41     0.60   822.10     0  12:07        0.60
  ZOF1                 OUTFALL      0.00     0.00   810.00     0  00:00        0.00
  93-49743             STORAGE      1.01     9.40   883.62     0  12:37        9.40
  93-49868             STORAGE      0.17     4.26   892.43     0  12:19        4.26
  93-49919             STORAGE      0.81     3.43   871.43     0  14:42        3.43
  93-49921             STORAGE      6.03     7.60   853.60     1  23:51        7.60
  93-50074             STORAGE      3.04     8.28   866.56     1  01:01        8.28
  93-50076             STORAGE      1.88     2.50   835.00     3  18:05        2.50
  93-50077             STORAGE      0.98     3.05   813.05     0  14:53        3.05
  93-50081             STORAGE      0.75     1.63   823.13     0  12:06        1.63
  93-50225             STORAGE      0.48     5.30   876.30     0  15:46        5.30
  93-90357             STORAGE      0.23     5.13   884.13     0  12:21        5.13
  93-90358             STORAGE      0.24     4.93   885.93     0  12:19        4.93
  
  
  *******************
  Node Inflow Summary
  *******************
  
  -------------------------------------------------------------------------------------------------
                                  Maximum  Maximum                  Lateral       Total        Flow
                                  Lateral    Total  Time of Max      Inflow      Inflow     Balance
                                   Inflow   Inflow   Occurrence      Volume      Volume       Error
  Node                 Type           CFS      CFS  days hr:min    10^6 gal    10^6 gal     Percent
  -------------------------------------------------------------------------------------------------
  J13                  JUNCTION      0.00     4.78     0  12:19           0       0.562       0.024
  J14                  JUNCTION      0.00     7.83     0  12:19           0        1.09      -0.014
  J15                  JUNCTION      0.00     6.49     0  15:46           0         1.6      -0.004
  J18                  JUNCTION      0.00     8.26     0  12:37           0        3.04      -0.001
  J19                  JUNCTION      0.00     3.13     1  01:01           0        4.06      -0.094
  J22                  JUNCTION      0.00     2.97     0  12:22           0        0.47       0.017
  J23                  JUNCTION      0.00     2.34     0  14:42           0        1.87      -2.397
  J24                  JUNCTION      0.00     2.75     1  23:51           0         6.6       0.016
  J25                  JUNCTION      0.00     2.37     3  18:05           0        5.35       0.003
  J26                  JUNCTION      0.00     3.76     0  12:06           0        5.44      -0.017
  ZOF1                 OUTFALL       0.00     6.37     0  14:53           0        9.13       0.000
  93-49743             STORAGE     119.83   119.83     0  12:00        3.04        3.04      -0.004
  93-49868             STORAGE      45.66    45.66     0  12:00       0.562       0.562      -0.016
  93-49919             STORAGE      84.57    86.26     0  12:00        1.22        1.87      -0.127
  93-49921             STORAGE     144.83   149.04     0  12:00        3.97        9.95       1.171
  93-50074             STORAGE      95.25   100.12     0  12:00        1.65        4.05      -0.148
  93-50076             STORAGE      18.46    19.90     0  12:00       0.346        6.94       0.088
  93-50077             STORAGE     153.24   156.38     0  12:00        3.91        9.34       0.008
  93-50081             STORAGE       5.48     6.26     0  12:00      0.0949        5.45       0.045
  93-50225             STORAGE      19.73    27.21     0  12:00       0.259         1.6      -0.152
  93-90357             STORAGE      35.03    35.03     0  12:00        0.47        0.47      -0.006
  93-90358             STORAGE      36.58    40.64     0  12:00       0.532        1.09      -0.009
  
  
  **********************
  Node Surcharge Summary
  **********************
  
  Surcharging occurs when water rises above the top of the highest conduit.
  ---------------------------------------------------------------------
                                               Max. Height   Min. Depth
                                   Hours       Above Crown    Below Rim
  Node                 Type      Surcharged           Feet         Feet
  ---------------------------------------------------------------------
  J14                  JUNCTION        3.69          0.000        0.000
  J15                  JUNCTION        8.45          0.000        0.000
  J18                  JUNCTION       10.72          0.000        0.000
  
  
  *********************
  Node Flooding Summary
  *********************
  
  Flooding refers to all water that overflows a node, whether it ponds or not.
  --------------------------------------------------------------------------
                                                             Total   Maximum
                                 Maximum   Time of Max       Flood    Ponded
                        Hours       Rate    Occurrence      Volume     Depth
  Node                 Flooded       CFS   days hr:min    10^6 gal      Feet
  --------------------------------------------------------------------------
  J14                     3.69      3.11      0  12:29       0.225     0.000
  J15                     8.45      5.47      0  15:44       0.943     0.000
  J18                    10.71      3.70      0  12:45       0.631     0.000
  
  
  **********************
  Storage Volume Summary
  **********************
  
  --------------------------------------------------------------------------------------------------
                         Average     Avg  Evap Exfil       Maximum     Max    Time of Max    Maximum
                          Volume    Pcnt  Pcnt  Pcnt        Volume    Pcnt     Occurrence    Outflow
  Storage Unit          1000 ft3    Full  Loss  Loss      1000 ft3    Full    days hr:min        CFS
  --------------------------------------------------------------------------------------------------
  93-49743                 8.510       3     0     0       121.695      44       0  12:37       8.26
  93-49868                 0.740       1     0     0        34.013      28       0  12:19       4.78
  93-49919                28.148       6     0     0       134.082      29       0  14:42       2.34
  93-49921               613.609      55     0     0       801.055      71       1  23:51       2.75
  93-50074                89.848      13     0     0       289.883      42       1  01:01       3.13
  93-50076               162.709      15     0     0       219.518      20       3  18:05       2.37
  93-50077                73.230       7     0     0       243.649      23       0  14:53       6.37
  93-50081                 0.723       3     0     0         2.323       8       0  12:06       3.76
  93-50225                 3.855       1     0     0        50.017       9       0  15:46       6.49
  93-90357                 1.003       1     0     0        30.181      41       0  12:21       2.97
  93-90358                 0.910       1     0     0        30.245      21       0  12:19       7.83
  
  
  ***********************
  Outfall Loading Summary
  ***********************
  
  -------------------------------------------------------------------------
                         Flow       Avg       Max       Total         Total
                         Freq      Flow      Flow      Volume           TSS
  Outfall Node           Pcnt       CFS       CFS    10^6 gal           lbs
  -------------------------------------------------------------------------
  ZOF1                  99.85      3.30      6.37       9.130      1268.910
  -------------------------------------------------------------------------
  System                99.85      3.30      6.37       9.130      1268.910
  
  
  ********************
  Link Flow Summary
  ********************
  
  -----------------------------------------------------------------------------
                                 Maximum  Time of Max   Maximum    Max/    Max/
                                  |Flow|   Occurrence   |Veloc|    Full    Full
  Link                 Type          CFS  days hr:min    ft/sec    Flow   Depth
  -----------------------------------------------------------------------------
  C08                  CONDUIT      5.40     0  11:56      7.01    0.97    1.00
  C09                  CONDUIT      6.86     0  03:07    >50.00    0.43    0.63
  C10                  CONDUIT      2.75     1  23:51      6.44    0.49    0.75
  C11                  CONDUIT      2.37     3  18:05      5.09    0.21    0.60
  C12                  CONDUIT      3.75     0  12:07      7.01    0.67    0.80
  C18                  CONDUIT      4.78     0  12:20      6.74    0.63    0.85
  C19                  CONDUIT      5.68     0  11:56     11.54    0.97    1.00
  C21                  CONDUIT      2.29     0  11:18      3.05    0.99    1.00
  C22                  CONDUIT      2.97     0  12:22      3.46    0.11    0.61
  C95-53307            CONDUIT      3.13     1  01:02     18.71    0.00    0.52
  OR34                 ORIFICE      4.78     0  12:19                          
  OR35                 ORIFICE      7.83     0  12:19                          
  OR36                 ORIFICE      6.49     0  15:46                          
  OR38                 ORIFICE      3.13     1  01:01                          
  OR39                 ORIFICE      8.26     0  12:37                          
  OR43                 ORIFICE      2.97     0  12:22                          
  OR44                 ORIFICE      2.34     0  14:42                          
  OR45                 ORIFICE      2.75     1  23:51                          
  OR46                 ORIFICE      2.37     3  18:05                          
  OR47                 ORIFICE      3.76     0  12:06                          
  OR48                 ORIFICE      6.37     0  14:53                          
  
  
  ***************************
  Flow Classification Summary
  ***************************
  
  -------------------------------------------------------------------------------------
                      Adjusted    ---------- Fraction of Time in Flow Class ---------- 
                       /Actual         Up    Down  Sub   Sup   Up    Down  Norm  Inlet 
  Conduit               Length    Dry  Dry   Dry   Crit  Crit  Crit  Crit  Ltd   Ctrl  
  -------------------------------------------------------------------------------------
  C08                     1.00   0.00  0.00  0.00  0.67  0.33  0.00  0.00  0.85  0.00
  C09                     1.00   0.00  0.01  0.00  0.84  0.16  0.00  0.00  0.97  0.00
  C10                     1.00   0.00  0.00  0.00  0.90  0.10  0.00  0.00  0.89  0.00
  C11                     1.00   0.00  0.00  0.00  0.04  0.96  0.00  0.00  0.99  0.00
  C12                     1.00   0.00  0.00  0.00  0.35  0.65  0.00  0.00  0.55  0.00
  C18                     1.00   0.00  0.00  0.00  0.96  0.04  0.00  0.00  0.41  0.00
  C19                     1.00   0.00  0.32  0.00  0.66  0.01  0.00  0.00  0.95  0.00
  C21                     1.00   0.00  0.00  0.00  0.99  0.01  0.00  0.00  0.83  0.00
  C22                     1.00   0.00  0.48  0.00  0.52  0.00  0.00  0.00  0.99  0.00
  C95-53307               1.00   0.00  0.00  0.00  0.99  0.01  0.00  0.00  0.98  0.00
  
  
  *************************
  Conduit Surcharge Summary
  *************************
  
  ----------------------------------------------------------------------------
                                                           Hours        Hours 
                         --------- Hours Full --------   Above Full   Capacity
  Conduit                Both Ends  Upstream  Dnstream   Normal Flow   Limited
  ----------------------------------------------------------------------------
  C08                        10.71     10.71     59.01      0.01         0.01
  C09                         0.01      0.01     98.17      0.01         0.01
  C10                         0.01      0.01     87.91      0.01         0.01
  C11                         0.01      0.01      0.46      0.01         0.01
  C12                         0.01      0.01     28.34      0.01         0.01
  C18                         0.01      0.01      4.57      0.01         0.01
  C19                         3.69      3.69     10.90      0.01         0.01
  C21                         8.45      8.45     29.76      0.01         0.01
  C22                         0.01      0.01      8.40      0.01         0.01
  C95-53307                   0.01      0.01     51.87      0.01         0.01
  
  
  ***************************
  Link Pollutant Load Summary
  ***************************
  
  ----------------------------------
                                 TSS
  Link                           lbs
  ----------------------------------
  C08                        276.409
  C09                        382.626
  C10                        947.109
  C11                        800.482
  C12                        816.612
  C18                        114.271
  C19                        176.749
  C21                        133.677
  C22                         95.631
  C95-53307                  586.809
  OR34                       114.299
  OR35                       222.424
  OR36                       325.521
  OR38                       566.092
  OR39                       380.588
  OR43                        95.636
  OR44                       378.770
  OR45                       947.084
  OR46                       800.475
  OR47                       816.344
  OR48                      1268.910
  

  Analysis begun on:  Mon Apr  1 18:19:55 2019
  Analysis ended on:  Mon Apr  1 18:20:00 2019
  Total elapsed time: 00:00:05