
  EPA STORM WATER MANAGEMENT MODEL - VERSION 5.1 (Build 5.2.0.dev4)
  --------------------------------------------------------------

  
  **********************           Volume        Volume
  Rainfall Dependent I/I        acre-feet      10^6 gal
  **********************        ---------     ---------
  Sewershed Rainfall ......        65.937        21.486
  RDII Produced ...........         8.835         2.879
  RDII Ratio ..............         0.134
  
  
  *********************************************************
  NOTE: The summary statistics displayed in this report are
  based on results found at every computational time step,  
  not just on results from each reporting time step.
  *********************************************************
  
  ****************
  Analysis Options
  ****************
  Flow Units ............... CFS
  Process Models:
    Rainfall/Runoff ........ YES
    RDII ................... YES
    Snowmelt ............... NO
    Groundwater ............ NO
    Flow Routing ........... YES
    Ponding Allowed ........ YES
    Water Quality .......... YES
  Infiltration Method ...... GREEN_AMPT
  Flow Routing Method ...... DYNWAVE
  Starting Date ............ 07/05/2014 12:00:00
  Ending Date .............. 07/10/2014 00:05:00
  Antecedent Dry Days ...... 5.0
  Report Time Step ......... 00:01:00
  Wet Time Step ............ 00:01:00
  Dry Time Step ............ 00:01:00
  Routing Time Step ........ 60.00 sec
  Variable Time Step ....... YES
  Maximum Trials ........... 8
  Number of Threads ........ 1
  Head Tolerance ........... 0.005000 ft
  
  
  **************************        Volume         Depth
  Runoff Quantity Continuity     acre-feet        inches
  **************************     ---------       -------
  Total Precipitation ......        48.155         2.806
  Evaporation Loss .........         0.000         0.000
  Infiltration Loss ........        16.711         0.974
  Surface Runoff ...........        30.822         1.796
  Final Storage ............         0.633         0.037
  Continuity Error (%) .....        -0.021
  
  
  **************************           TSS
  Runoff Quality Continuity            lbs
  **************************    ----------
  Initial Buildup ..........      3394.520
  Surface Buildup ..........      1932.026
  Wet Deposition ...........         0.000
  Sweeping Removal .........         0.000
  Infiltration Loss ........         0.000
  BMP Removal ..............         0.000
  Surface Runoff ...........      1950.081
  Remaining Buildup ........      3376.465
  Continuity Error (%) .....         0.000
  
  
  **************************        Volume        Volume
  Flow Routing Continuity        acre-feet      10^6 gal
  **************************     ---------     ---------
  Dry Weather Inflow .......         0.000         0.000
  Wet Weather Inflow .......        30.802        10.037
  Groundwater Inflow .......         0.000         0.000
  RDII Inflow ..............         8.835         2.879
  External Inflow ..........         0.000         0.000
  External Outflow .........        24.710         8.052
  Flooding Loss ............         3.236         1.055
  Evaporation Loss .........         0.000         0.000
  Exfiltration Loss ........         0.000         0.000
  Initial Stored Volume ....         0.000         0.000
  Final Stored Volume ......        11.954         3.895
  Continuity Error (%) .....        -0.663
  
  
  **************************           TSS
  Quality Routing Continuity           lbs
  **************************    ----------
  Dry Weather Inflow .......         0.000
  Wet Weather Inflow .......      1948.743
  Groundwater Inflow .......         0.000
  RDII Inflow ..............         0.000
  External Inflow ..........         0.000
  External Outflow .........      1212.505
  Flooding Loss ............       207.797
  Exfiltration Loss ........         0.000
  Mass Reacted .............         0.000
  Initial Stored Mass ......         0.000
  Final Stored Mass ........       545.446
  Continuity Error (%) .....        -0.873
  
  
  *************************
  Highest Continuity Errors
  *************************
  Node J23 (-4.93%)
  Node 93-49921 (1.06%)
  
  
  ***************************
  Time-Step Critical Elements
  ***************************
  Link C11 (75.22%)
  Link C09 (18.75%)
  Link C22 (4.03%)
  
  
  ********************************
  Highest Flow Instability Indexes
  ********************************
  Link OR47 (22)
  Link C12 (22)
  Link OR43 (3)
  Link C22 (3)
  Link OR34 (3)
  
  
  *************************
  Routing Time Step Summary
  *************************
  Minimum Time Step           :     7.25 sec
  Average Time Step           :    16.79 sec
  Maximum Time Step           :    60.00 sec
  Percent in Steady State     :     0.00
  Average Iterations per Step :     2.05
  Percent Not Converging      :     0.49
  
  
  ***************************
  Subcatchment Runoff Summary
  ***************************
  
  --------------------------------------------------------------------------------------------------------
                            Total      Total      Total      Total      Total       Total     Peak  Runoff
                           Precip      Runon       Evap      Infil     Runoff      Runoff   Runoff   Coeff
  Subcatchment                 in         in         in         in         in    10^6 gal      CFS
  --------------------------------------------------------------------------------------------------------
  102                        2.81       0.00       0.00       1.18       1.59        0.12     6.82   0.568
  103                        2.81       0.00       0.00       1.43       1.36        0.21    15.00   0.483
  115                        2.81       0.00       0.00       1.53       1.25        0.35    17.19   0.446
  120                        2.81       0.00       0.00       1.16       1.61        0.29    19.15   0.576
  1472                       2.81       0.00       0.00       0.92       1.85        0.16     9.36   0.658
  1497                       2.81       0.00       0.00       0.34       2.41        0.98    51.51   0.860
  1499                       2.81       0.00       0.00       0.11       2.64        1.81    88.40   0.939
  1503                       2.81       0.00       0.00       0.61       2.15        0.08     4.41   0.765
  1506                       2.81       0.00       0.00       1.31       1.47        0.40    23.24   0.523
  1570                       2.81       0.00       0.00       1.65       1.14        0.24    18.33   0.407
  1648                       2.81       0.00       0.00       1.47       1.30        0.10     5.57   0.465
  1736                       2.81       0.00       0.00       1.20       1.57        0.64    36.31   0.560
  1780                       2.81       0.00       0.00       1.61       1.17        0.07     4.39   0.418
  54                         2.81       0.00       0.00       0.33       2.42        2.39   121.53   0.864
  57                         2.81       0.00       0.00       1.88       0.91        0.25    12.28   0.324
  62                         2.81       0.00       0.00       1.52       1.26        0.36    28.05   0.449
  93                         2.81       0.00       0.00       1.17       1.60        0.36    22.42   0.571
  94                         2.81       0.00       0.00       1.50       1.28        0.44    34.88   0.457
  97                         2.81       0.00       0.00       1.32       1.46        0.78    48.58   0.520
  
  
  ****************************
  Subcatchment Washoff Summary
  ****************************
  
  ----------------------------------
                                 TSS
  Subcatchment                   lbs
  ----------------------------------
  102                         25.004
  103                         42.028
  115                         71.126
  120                         59.659
  1472                        32.726
  1497                       185.831
  1499                       323.234
  1503                        15.777
  1506                        82.112
  1570                        49.529
  1648                        19.524
  1736                       130.125
  1780                        15.078
  54                         452.445
  57                          50.808
  62                          73.609
  93                          72.700
  94                          90.455
  97                         158.311
  ----------------------------------
  System                    1950.081
  
  
  ******************
  Node Depth Summary
  ******************
  
  ---------------------------------------------------------------------------------
                                 Average  Maximum  Maximum  Time of Max    Reported
                                   Depth    Depth      HGL   Occurrence   Max Depth
  Node                 Type         Feet     Feet     Feet  days hr:min        Feet
  ---------------------------------------------------------------------------------
  J13                  JUNCTION     0.04     0.56   888.73     0  12:17        0.56
  J14                  JUNCTION     0.07     1.00   882.00     0  12:00        1.00
  J15                  JUNCTION     0.15     1.00   872.00     0  11:40        1.00
  J18                  JUNCTION     0.21     1.00   875.22     0  12:00        1.00
  J19                  JUNCTION     0.11     0.22   858.50     0  23:57        0.22
  J22                  JUNCTION     0.03     0.30   879.30     0  12:19        0.30
  J23                  JUNCTION     0.08     0.25   868.25     0  16:53        0.25
  J24                  JUNCTION     0.43     0.47   846.47     1  20:41        0.47
  J25                  JUNCTION     0.26     0.30   832.80     3  11:19        0.30
  J26                  JUNCTION     0.40     0.55   822.05     0  12:07        0.55
  ZOF1                 OUTFALL      0.00     0.00   810.00     0  00:00        0.00
  93-49743             STORAGE      0.73     7.63   881.85     0  12:34        7.63
  93-49868             STORAGE      0.13     3.64   891.81     0  12:17        3.64
  93-49919             STORAGE      0.65     2.87   870.87     0  16:52        2.87
  93-49921             STORAGE      5.06     6.61   852.61     1  20:40        6.61
  93-50074             STORAGE      2.45     7.41   865.69     0  23:56        7.41
  93-50076             STORAGE      1.65     2.16   834.66     3  11:19        2.16
  93-50077             STORAGE      0.76     2.46   812.46     0  14:06        2.46
  93-50081             STORAGE      0.71     1.34   822.84     0  12:06        1.34
  93-50225             STORAGE      0.38     4.92   875.92     0  14:57        4.92
  93-90357             STORAGE      0.16     4.16   883.16     0  12:19        4.16
  93-90358             STORAGE      0.18     4.09   885.09     0  12:18        4.09
  
  
  *******************
  Node Inflow Summary
  *******************
  
  -------------------------------------------------------------------------------------------------
                                  Maximum  Maximum                  Lateral       Total        Flow
                                  Lateral    Total  Time of Max      Inflow      Inflow     Balance
                                   Inflow   Inflow   Occurrence      Volume      Volume       Error
  Node                 Type           CFS      CFS  days hr:min    10^6 gal    10^6 gal     Percent
  -------------------------------------------------------------------------------------------------
  J13                  JUNCTION      0.00     4.44     0  12:17           0       0.444      -0.005
  J14                  JUNCTION      0.00     6.93     0  12:18           0       0.848      -0.017
  J15                  JUNCTION      0.00     6.21     0  14:57           0        1.31      -0.011
  J18                  JUNCTION      0.00     7.34     0  12:34           0        2.41      -0.003
  J19                  JUNCTION      0.00     2.95     0  23:56           0        3.46      -0.135
  J22                  JUNCTION      0.00     2.66     0  12:19           0       0.366      -0.119
  J23                  JUNCTION      0.00     2.13     0  16:53           0         1.6      -4.698
  J24                  JUNCTION      0.00     2.55     1  20:41           0        5.99       0.014
  J25                  JUNCTION      0.00     2.19     3  11:19           0        4.94       0.004
  J26                  JUNCTION      0.00     3.28     0  12:06           0        5.01      -0.056
  ZOF1                 OUTFALL       0.00     5.72     0  14:06           0        8.05       0.000
  93-49743             STORAGE      82.87    82.87     0  12:00        2.41        2.41      -0.001
  93-49868             STORAGE      34.88    34.88     0  12:00       0.445       0.444       0.012
  93-49919             STORAGE      57.94    59.84     0  12:00       0.939         1.6      -0.122
  93-49921             STORAGE     116.75   120.59     0  12:00        3.27        8.41       1.071
  93-50074             STORAGE      73.93    79.22     0  12:00        1.34        3.46      -0.146
  93-50076             STORAGE      12.28    13.59     0  12:00        0.25        6.24       0.084
  93-50077             STORAGE     121.75   124.47     0  12:00        3.21        8.22       0.010
  93-50081             STORAGE       4.41     5.10     0  12:00      0.0781        5.02       0.081
  93-50225             STORAGE      15.00    22.75     0  12:00       0.207        1.31      -0.150
  93-90357             STORAGE      25.14    25.14     0  12:00       0.367       0.366      -0.002
  93-90358             STORAGE      23.24    27.05     0  12:00       0.404       0.848      -0.002
  
  
  **********************
  Node Surcharge Summary
  **********************
  
  Surcharging occurs when water rises above the top of the highest conduit.
  ---------------------------------------------------------------------
                                               Max. Height   Min. Depth
                                   Hours       Above Crown    Below Rim
  Node                 Type      Surcharged           Feet         Feet
  ---------------------------------------------------------------------
  J14                  JUNCTION        2.76          0.000        0.000
  J15                  JUNCTION        6.87          0.000        0.000
  J18                  JUNCTION        7.09          0.000        0.000
  
  
  *********************
  Node Flooding Summary
  *********************
  
  Flooding refers to all water that overflows a node, whether it ponds or not.
  --------------------------------------------------------------------------
                                                             Total   Maximum
                                 Maximum   Time of Max       Flood    Ponded
                        Hours       Rate    Occurrence      Volume     Depth
  Node                 Flooded       CFS   days hr:min    10^6 gal      Feet
  --------------------------------------------------------------------------
  J14                     2.76      2.07      0  12:29       0.112     0.000
  J15                     6.87      4.77      0  14:59       0.654     0.000
  J18                     7.08      2.60      0  12:40       0.289     0.000
  
  
  **********************
  Storage Volume Summary
  **********************
  
  --------------------------------------------------------------------------------------------------
                         Average     Avg  Evap Exfil       Maximum     Max    Time of Max    Maximum
                          Volume    Pcnt  Pcnt  Pcnt        Volume    Pcnt     Occurrence    Outflow
  Storage Unit          1000 ft3    Full  Loss  Loss      1000 ft3    Full    days hr:min        CFS
  --------------------------------------------------------------------------------------------------
  93-49743                 4.926       2     0     0        85.200      31       0  12:34       7.34
  93-49868                 0.428       0     0     0        24.526      20       0  12:17       4.44
  93-49919                21.422       5     0     0       107.241      24       0  16:52       2.13
  93-49921               499.086      44     0     0       674.560      60       1  20:40       2.55
  93-50074                68.112      10     0     0       241.401      35       0  23:56       2.95
  93-50076               140.910      13     0     0       187.298      17       3  11:19       2.19
  93-50077                55.661       5     0     0       193.746      18       0  14:06       5.72
  93-50081                 0.655       2     0     0         1.719       6       0  12:06       3.28
  93-50225                 2.878       1     0     0        42.989       8       0  14:57       6.21
  93-90357                 0.600       1     0     0        21.396      29       0  12:19       2.66
  93-90358                 0.508       0     0     0        19.764      14       0  12:18       6.93
  
  
  ***********************
  Outfall Loading Summary
  ***********************
  
  -------------------------------------------------------------------------
                         Flow       Avg       Max       Total         Total
                         Freq      Flow      Flow      Volume           TSS
  Outfall Node           Pcnt       CFS       CFS    10^6 gal           lbs
  -------------------------------------------------------------------------
  ZOF1                  99.82      2.92      5.72       8.051      1212.571
  -------------------------------------------------------------------------
  System                99.82      2.92      5.72       8.051      1212.571
  
  
  ********************
  Link Flow Summary
  ********************
  
  -----------------------------------------------------------------------------
                                 Maximum  Time of Max   Maximum    Max/    Max/
                                  |Flow|   Occurrence   |Veloc|    Full    Full
  Link                 Type          CFS  days hr:min    ft/sec    Flow   Depth
  -----------------------------------------------------------------------------
  C08                  CONDUIT      5.45     0  11:59      7.08    0.98    1.00
  C09                  CONDUIT     13.66     0  04:07    >50.00    0.85    0.62
  C10                  CONDUIT      2.55     1  20:42      6.47    0.46    0.74
  C11                  CONDUIT      2.19     3  11:19      4.98    0.19    0.59
  C12                  CONDUIT      3.27     0  12:07      7.24    0.59    0.78
  C18                  CONDUIT      4.44     0  12:17      6.76    0.59    0.78
  C19                  CONDUIT      5.71     0  11:59      7.44    0.97    1.00
  C21                  CONDUIT      2.34     0  11:35      3.09    1.00    1.00
  C22                  CONDUIT      2.66     0  12:19    >50.00    0.10    0.61
  C95-53307            CONDUIT      2.95     0  23:58     18.71    0.00    0.52
  OR34                 ORIFICE      4.44     0  12:17                          
  OR35                 ORIFICE      6.93     0  12:18                          
  OR36                 ORIFICE      6.21     0  14:57                          
  OR38                 ORIFICE      2.95     0  23:56                          
  OR39                 ORIFICE      7.34     0  12:34                          
  OR43                 ORIFICE      2.66     0  12:19                          
  OR44                 ORIFICE      2.13     0  16:53                          
  OR45                 ORIFICE      2.55     1  20:41                          
  OR46                 ORIFICE      2.19     3  11:19                          
  OR47                 ORIFICE      3.28     0  12:06                          
  OR48                 ORIFICE      5.72     0  14:06                          
  
  
  ***************************
  Flow Classification Summary
  ***************************
  
  -------------------------------------------------------------------------------------
                      Adjusted    ---------- Fraction of Time in Flow Class ---------- 
                       /Actual         Up    Down  Sub   Sup   Up    Down  Norm  Inlet 
  Conduit               Length    Dry  Dry   Dry   Crit  Crit  Crit  Crit  Ltd   Ctrl  
  -------------------------------------------------------------------------------------
  C08                     1.00   0.00  0.00  0.00  0.60  0.40  0.00  0.00  0.76  0.00
  C09                     1.00   0.00  0.00  0.00  0.94  0.05  0.00  0.00  0.97  0.00
  C10                     1.00   0.00  0.00  0.00  0.87  0.13  0.00  0.00  0.89  0.00
  C11                     1.00   0.00  0.00  0.00  0.04  0.96  0.00  0.00  0.99  0.00
  C12                     1.00   0.00  0.00  0.00  0.30  0.70  0.00  0.00  0.43  0.00
  C18                     1.00   0.00  0.00  0.00  0.97  0.03  0.00  0.00  0.41  0.00
  C19                     1.00   0.00  0.33  0.00  0.66  0.02  0.00  0.00  0.95  0.00
  C21                     1.00   0.00  0.00  0.00  0.99  0.01  0.00  0.00  0.86  0.00
  C22                     1.00   0.00  0.48  0.00  0.52  0.00  0.00  0.00  0.99  0.00
  C95-53307               1.00   0.00  0.00  0.00  0.99  0.01  0.00  0.00  0.98  0.00
  
  
  *************************
  Conduit Surcharge Summary
  *************************
  
  ----------------------------------------------------------------------------
                                                           Hours        Hours 
                         --------- Hours Full --------   Above Full   Capacity
  Conduit                Both Ends  Upstream  Dnstream   Normal Flow   Limited
  ----------------------------------------------------------------------------
  C08                         7.08      7.08     51.72      0.01         0.01
  C09                         0.01      0.01     97.51      0.01         0.01
  C10                         0.01      0.01     84.10      0.01         0.01
  C11                         0.01      0.01      0.31      0.01         0.01
  C12                         0.01      0.01     23.03      0.01         0.01
  C18                         0.01      0.01      3.56      0.01         0.01
  C19                         2.76      2.76      8.62      0.01         0.01
  C21                         6.88      6.88     25.73      0.09         0.01
  C22                         0.01      0.01      6.85      0.01         0.01
  C95-53307                   0.01      0.01     15.04      0.01         0.01
  
  
  ***************************
  Link Pollutant Load Summary
  ***************************
  
  ----------------------------------
                                 TSS
  Link                           lbs
  ----------------------------------
  C08                        244.193
  C09                        333.103
  C10                        904.865
  C11                        770.375
  C12                        785.276
  C18                         90.423
  C19                        149.883
  C21                        133.787
  C22                         74.613
  C95-53307                  522.377
  OR34                        90.367
  OR35                       172.470
  OR36                       266.775
  OR38                       501.795
  OR39                       295.484
  OR43                        74.477
  OR44                       324.473
  OR45                       904.842
  OR46                       770.374
  OR47                       784.745
  OR48                      1212.571
  

  Analysis begun on:  Mon Apr  1 18:20:00 2019
  Analysis ended on:  Mon Apr  1 18:20:05 2019
  Total elapsed time: 00:00:05