
  EPA STORM WATER MANAGEMENT MODEL - VERSION 5.1 (Build 5.2.0.dev4)
  --------------------------------------------------------------

  
  **********************           Volume        Volume
  Rainfall Dependent I/I        acre-feet      10^6 gal
  **********************        ---------     ---------
  Sewershed Rainfall ......        74.448        24.260
  RDII Produced ...........        10.112         3.295
  RDII Ratio ..............         0.136
  
  
  *********************************************************
  NOTE: The summary statistics displayed in this report are
  based on results found at every computational time step,  
  not just on results from each reporting time step.
  *********************************************************
  
  ****************
  Analysis Options
  ****************
  Flow Units ............... CFS
  Process Models:
    Rainfall/Runoff ........ YES
    RDII ................... YES
    Snowmelt ............... NO
    Groundwater ............ NO
    Flow Routing ........... YES
    Ponding Allowed ........ YES
    Water Quality .......... YES
  Infiltration Method ...... GREEN_AMPT
  Flow Routing Method ...... DYNWAVE
  Starting Date ............ 07/05/2014 12:00:00
  Ending Date .............. 07/10/2014 00:05:00
  Antecedent Dry Days ...... 5.0
  Report Time Step ......... 00:01:00
  Wet Time Step ............ 00:01:00
  Dry Time Step ............ 00:01:00
  Routing Time Step ........ 60.00 sec
  Variable Time Step ....... YES
  Maximum Trials ........... 8
  Number of Threads ........ 1
  Head Tolerance ........... 0.005000 ft
  
  
  **************************        Volume         Depth
  Runoff Quantity Continuity     acre-feet        inches
  **************************     ---------       -------
  Total Precipitation ......        54.371         3.168
  Evaporation Loss .........         0.000         0.000
  Infiltration Loss ........        17.892         1.042
  Surface Runoff ...........        35.859         2.089
  Final Storage ............         0.633         0.037
  Continuity Error (%) .....        -0.022
  
  
  **************************           TSS
  Runoff Quality Continuity            lbs
  **************************    ----------
  Initial Buildup ..........      3394.520
  Surface Buildup ..........      2129.613
  Wet Deposition ...........         0.000
  Sweeping Removal .........         0.000
  Infiltration Loss ........         0.000
  BMP Removal ..............         0.000
  Surface Runoff ...........      2176.395
  Remaining Buildup ........      3347.738
  Continuity Error (%) .....         0.000
  
  
  **************************        Volume        Volume
  Flow Routing Continuity        acre-feet      10^6 gal
  **************************     ---------     ---------
  Dry Weather Inflow .......         0.000         0.000
  Wet Weather Inflow .......        35.828        11.675
  Groundwater Inflow .......         0.000         0.000
  RDII Inflow ..............        10.112         3.295
  External Inflow ..........         0.000         0.000
  External Outflow .........        26.867         8.755
  Flooding Loss ............         4.656         1.517
  Evaporation Loss .........         0.000         0.000
  Exfiltration Loss ........         0.000         0.000
  Initial Stored Volume ....         0.000         0.000
  Final Stored Volume ......        14.510         4.728
  Continuity Error (%) .....        -0.203
  
  
  **************************           TSS
  Quality Routing Continuity           lbs
  **************************    ----------
  Dry Weather Inflow .......         0.000
  Wet Weather Inflow .......      2174.355
  Groundwater Inflow .......         0.000
  RDII Inflow ..............         0.000
  External Inflow ..........         0.000
  External Outflow .........      1250.991
  Flooding Loss ............       292.380
  Exfiltration Loss ........         0.000
  Mass Reacted .............         0.000
  Initial Stored Mass ......         0.000
  Final Stored Mass ........       641.312
  Continuity Error (%) .....        -0.475
  
  
  *************************
  Highest Continuity Errors
  *************************
  Node 93-49921 (1.05%)
  
  
  ***************************
  Time-Step Critical Elements
  ***************************
  Link C11 (73.83%)
  Link C09 (19.88%)
  Link C22 (4.50%)
  
  
  ********************************
  Highest Flow Instability Indexes
  ********************************
  Link OR47 (18)
  Link C12 (17)
  Link OR43 (3)
  Link C22 (3)
  Link OR34 (3)
  
  
  *************************
  Routing Time Step Summary
  *************************
  Minimum Time Step           :     2.26 sec
  Average Time Step           :    16.35 sec
  Maximum Time Step           :    60.00 sec
  Percent in Steady State     :     0.00
  Average Iterations per Step :     2.05
  Percent Not Converging      :     0.47
  
  
  ***************************
  Subcatchment Runoff Summary
  ***************************
  
  --------------------------------------------------------------------------------------------------------
                            Total      Total      Total      Total      Total       Total     Peak  Runoff
                           Precip      Runon       Evap      Infil     Runoff      Runoff   Runoff   Coeff
  Subcatchment                 in         in         in         in         in    10^6 gal      CFS
  --------------------------------------------------------------------------------------------------------
  102                        3.17       0.00       0.00       1.25       1.89        0.15     8.97   0.596
  103                        3.17       0.00       0.00       1.56       1.58        0.24    18.13   0.500
  115                        3.17       0.00       0.00       1.67       1.47        0.41    20.67   0.464
  120                        3.17       0.00       0.00       1.27       1.87        0.34    22.81   0.590
  1472                       3.17       0.00       0.00       0.96       2.17        0.19    11.85   0.686
  1497                       3.17       0.00       0.00       0.36       2.75        1.12    59.74   0.869
  1499                       3.17       0.00       0.00       0.12       2.99        2.05   100.93   0.943
  1503                       3.17       0.00       0.00       0.67       2.45        0.09     5.11   0.774
  1506                       3.17       0.00       0.00       1.38       1.75        0.48    31.46   0.554
  1570                       3.17       0.00       0.00       1.80       1.35        0.29    22.53   0.426
  1648                       3.17       0.00       0.00       1.56       1.58        0.12     7.74   0.499
  1736                       3.17       0.00       0.00       1.27       1.87        0.76    48.24   0.589
  1780                       3.17       0.00       0.00       1.71       1.44        0.09     6.28   0.454
  54                         3.17       0.00       0.00       0.34       2.77        2.74   143.31   0.876
  57                         3.17       0.00       0.00       2.04       1.11        0.31    15.83   0.351
  62                         3.17       0.00       0.00       1.67       1.48        0.42    33.94   0.467
  93                         3.17       0.00       0.00       1.22       1.91        0.43    29.21   0.604
  94                         3.17       0.00       0.00       1.64       1.51        0.52    42.01   0.475
  97                         3.17       0.00       0.00       1.37       1.77        0.95    66.18   0.560
  
  
  ****************************
  Subcatchment Washoff Summary
  ****************************
  
  ----------------------------------
                                 TSS
  Subcatchment                   lbs
  ----------------------------------
  102                         29.616
  103                         49.095
  115                         83.707
  120                         69.011
  1472                        37.990
  1497                       194.206
  1499                       335.868
  1503                        16.758
  1506                        98.203
  1570                        58.544
  1648                        23.656
  1736                       154.455
  1780                        18.519
  54                         472.941
  57                          62.158
  62                          86.338
  93                          86.845
  94                         106.155
  97                         192.330
  ----------------------------------
  System                    2176.395
  
  
  ******************
  Node Depth Summary
  ******************
  
  ---------------------------------------------------------------------------------
                                 Average  Maximum  Maximum  Time of Max    Reported
                                   Depth    Depth      HGL   Occurrence   Max Depth
  Node                 Type         Feet     Feet     Feet  days hr:min        Feet
  ---------------------------------------------------------------------------------
  J13                  JUNCTION     0.04     0.64   888.81     0  12:18        0.64
  J14                  JUNCTION     0.08     1.00   882.00     0  11:58        1.00
  J15                  JUNCTION     0.16     1.00   872.00     0  11:30        1.00
  J18                  JUNCTION     0.23     1.00   875.22     0  11:58        1.00
  J19                  JUNCTION     0.12     0.22   858.50     1  00:34        0.22
  J22                  JUNCTION     0.03     0.31   879.31     0  12:21        0.31
  J23                  JUNCTION     0.09     0.25   868.25     0  15:11        0.25
  J24                  JUNCTION     0.45     0.49   846.49     1  22:57        0.49
  J25                  JUNCTION     0.27     0.31   832.81     3  16:00        0.31
  J26                  JUNCTION     0.40     0.58   822.08     0  12:07        0.58
  ZOF1                 OUTFALL      0.00     0.00   810.00     0  00:00        0.00
  93-49743             STORAGE      0.91     8.75   882.97     0  12:36        8.75
  93-49868             STORAGE      0.15     4.05   892.22     0  12:18        4.05
  93-49919             STORAGE      0.77     3.26   871.26     0  15:10        3.26
  93-49921             STORAGE      5.69     7.26   853.26     1  22:56        7.26
  93-50074             STORAGE      2.85     8.03   866.31     1  00:32        8.03
  93-50076             STORAGE      1.79     2.38   834.88     3  16:00        2.38
  93-50077             STORAGE      0.90     2.85   812.85     0  14:26        2.85
  93-50081             STORAGE      0.74     1.52   823.02     0  12:06        1.52
  93-50225             STORAGE      0.45     5.18   876.18     0  15:29        5.18
  93-90357             STORAGE      0.21     4.78   883.78     0  12:21        4.78
  93-90358             STORAGE      0.22     4.61   885.61     0  12:18        4.61
  
  
  *******************
  Node Inflow Summary
  *******************
  
  -------------------------------------------------------------------------------------------------
                                  Maximum  Maximum                  Lateral       Total        Flow
                                  Lateral    Total  Time of Max      Inflow      Inflow     Balance
                                   Inflow   Inflow   Occurrence      Volume      Volume       Error
  Node                 Type           CFS      CFS  days hr:min    10^6 gal    10^6 gal     Percent
  -------------------------------------------------------------------------------------------------
  J13                  JUNCTION      0.00     4.67     0  12:18           0       0.521       0.015
  J14                  JUNCTION      0.00     7.50     0  12:18           0           1      -0.013
  J15                  JUNCTION      0.00     6.40     0  15:29           0         1.5       0.008
  J18                  JUNCTION      0.00     7.94     0  12:36           0        2.81      -0.002
  J19                  JUNCTION      0.00     3.08     1  00:32           0        3.87      -0.106
  J22                  JUNCTION      0.00     2.86     0  12:21           0       0.433       0.027
  J23                  JUNCTION      0.00     2.28     0  15:11           0        1.79      -0.561
  J24                  JUNCTION      0.00     2.68     1  22:57           0        6.38       0.015
  J25                  JUNCTION      0.00     2.31     3  16:00           0         5.2       0.004
  J26                  JUNCTION      0.00     3.58     0  12:06           0        5.28      -0.024
  ZOF1                 OUTFALL       0.00     6.15     0  14:26           0        8.75       0.000
  93-49743             STORAGE     106.07   106.07     0  12:00        2.82        2.81      -0.002
  93-49868             STORAGE      42.01    42.01     0  12:00       0.522       0.521      -0.001
  93-49919             STORAGE      78.03    79.79     0  12:00        1.13        1.79      -0.129
  93-49921             STORAGE     135.25   139.36     0  12:00        3.73        9.41       1.058
  93-50074             STORAGE      88.94    93.85     0  12:00        1.55        3.86      -0.148
  93-50076             STORAGE      15.83    17.22     0  12:00       0.306        6.69       0.088
  93-50077             STORAGE     143.59   146.59     0  12:00        3.67        8.95       0.008
  93-50081             STORAGE       5.11     5.85     0  12:00      0.0892        5.29       0.052
  93-50225             STORAGE      18.13    25.58     0  12:00       0.241         1.5      -0.169
  93-90357             STORAGE      31.50    31.50     0  12:00       0.433       0.433      -0.010
  93-90358             STORAGE      31.46    35.45     0  12:00       0.483           1      -0.009
  
  
  **********************
  Node Surcharge Summary
  **********************
  
  Surcharging occurs when water rises above the top of the highest conduit.
  ---------------------------------------------------------------------
                                               Max. Height   Min. Depth
                                   Hours       Above Crown    Below Rim
  Node                 Type      Surcharged           Feet         Feet
  ---------------------------------------------------------------------
  J14                  JUNCTION        3.37          0.000        0.000
  J15                  JUNCTION        7.91          0.000        0.000
  J18                  JUNCTION        9.45          0.000        0.000
  
  
  *********************
  Node Flooding Summary
  *********************
  
  Flooding refers to all water that overflows a node, whether it ponds or not.
  --------------------------------------------------------------------------
                                                             Total   Maximum
                                 Maximum   Time of Max       Flood    Ponded
                        Hours       Rate    Occurrence      Volume     Depth
  Node                 Flooded       CFS   days hr:min    10^6 gal      Feet
  --------------------------------------------------------------------------
  J14                     3.37      2.74      0  12:29       0.180     0.000
  J15                     7.91      5.25      0  15:28       0.841     0.000
  J18                     9.44      3.32      0  12:43       0.496     0.000
  
  
  **********************
  Storage Volume Summary
  **********************
  
  --------------------------------------------------------------------------------------------------
                         Average     Avg  Evap Exfil       Maximum     Max    Time of Max    Maximum
                          Volume    Pcnt  Pcnt  Pcnt        Volume    Pcnt     Occurrence    Outflow
  Storage Unit          1000 ft3    Full  Loss  Loss      1000 ft3    Full    days hr:min        CFS
  --------------------------------------------------------------------------------------------------
  93-49743                 7.084       3     0     0       107.725      39       0  12:36       7.94
  93-49868                 0.623       1     0     0        30.713      25       0  12:18       4.67
  93-49919                26.212       6     0     0       126.138      28       0  15:10       2.28
  93-49921               573.229      51     0     0       757.016      67       1  22:56       2.68
  93-50074                82.687      12     0     0       275.253      40       1  00:32       3.08
  93-50076               154.562      14     0     0       208.206      19       3  16:00       2.31
  93-50077                66.922       6     0     0       226.516      22       0  14:26       6.15
  93-50081                 0.696       2     0     0         2.090       7       0  12:06       3.58
  93-50225                 3.501       1     0     0        47.637       8       0  15:29       6.40
  93-90357                 0.847       1     0     0        26.966      36       0  12:21       2.86
  93-90358                 0.743       1     0     0        25.996      18       0  12:18       7.50
  
  
  ***********************
  Outfall Loading Summary
  ***********************
  
  -------------------------------------------------------------------------
                         Flow       Avg       Max       Total         Total
                         Freq      Flow      Flow      Volume           TSS
  Outfall Node           Pcnt       CFS       CFS    10^6 gal           lbs
  -------------------------------------------------------------------------
  ZOF1                  99.84      3.17      6.15       8.754      1251.058
  -------------------------------------------------------------------------
  System                99.84      3.17      6.15       8.754      1251.058
  
  
  ********************
  Link Flow Summary
  ********************
  
  -----------------------------------------------------------------------------
                                 Maximum  Time of Max   Maximum    Max/    Max/
                                  |Flow|   Occurrence   |Veloc|    Full    Full
  Link                 Type          CFS  days hr:min    ft/sec    Flow   Depth
  -----------------------------------------------------------------------------
  C08                  CONDUIT      5.41     0  11:57      7.03    0.98    1.00
  C09                  CONDUIT      2.28     0  15:11    >50.00    0.14    0.63
  C10                  CONDUIT      2.68     1  22:58      6.40    0.48    0.74
  C11                  CONDUIT      2.31     3  16:00      5.09    0.20    0.60
  C12                  CONDUIT      3.58     0  12:07      7.08    0.64    0.79
  C18                  CONDUIT      4.67     0  12:19      6.79    0.62    0.82
  C19                  CONDUIT      5.68     0  11:57      7.40    0.97    1.00
  C21                  CONDUIT      2.31     0  11:24      3.06    0.99    1.00
  C22                  CONDUIT      2.86     0  12:21      3.38    0.11    0.61
  C95-53307            CONDUIT      3.08     1  00:34     18.71    0.00    0.52
  OR34                 ORIFICE      4.67     0  12:18                          
  OR35                 ORIFICE      7.50     0  12:18                          
  OR36                 ORIFICE      6.40     0  15:29                          
  OR38                 ORIFICE      3.08     1  00:32                          
  OR39                 ORIFICE      7.94     0  12:36                          
  OR43                 ORIFICE      2.86     0  12:21                          
  OR44                 ORIFICE      2.28     0  15:11                          
  OR45                 ORIFICE      2.68     1  22:57                          
  OR46                 ORIFICE      2.31     3  16:00                          
  OR47                 ORIFICE      3.58     0  12:06                          
  OR48                 ORIFICE      6.15     0  14:26                          
  
  
  ***************************
  Flow Classification Summary
  ***************************
  
  -------------------------------------------------------------------------------------
                      Adjusted    ---------- Fraction of Time in Flow Class ---------- 
                       /Actual         Up    Down  Sub   Sup   Up    Down  Norm  Inlet 
  Conduit               Length    Dry  Dry   Dry   Crit  Crit  Crit  Crit  Ltd   Ctrl  
  -------------------------------------------------------------------------------------
  C08                     1.00   0.00  0.00  0.00  0.65  0.35  0.00  0.00  0.81  0.00
  C09                     1.00   0.00  0.00  0.00  0.84  0.15  0.00  0.00  0.98  0.00
  C10                     1.00   0.00  0.00  0.00  0.89  0.11  0.00  0.00  0.89  0.00
  C11                     1.00   0.00  0.00  0.00  0.05  0.95  0.00  0.00  0.99  0.00
  C12                     1.00   0.00  0.00  0.00  0.34  0.66  0.00  0.00  0.50  0.00
  C18                     1.00   0.00  0.00  0.00  0.96  0.04  0.00  0.00  0.41  0.00
  C19                     1.00   0.00  0.32  0.00  0.66  0.01  0.00  0.00  0.95  0.00
  C21                     1.00   0.00  0.00  0.00  0.99  0.01  0.00  0.00  0.84  0.00
  C22                     1.00   0.00  0.48  0.00  0.52  0.00  0.00  0.00  0.99  0.00
  C95-53307               1.00   0.00  0.00  0.00  0.99  0.01  0.00  0.00  0.98  0.00
  
  
  *************************
  Conduit Surcharge Summary
  *************************
  
  ----------------------------------------------------------------------------
                                                           Hours        Hours 
                         --------- Hours Full --------   Above Full   Capacity
  Conduit                Both Ends  Upstream  Dnstream   Normal Flow   Limited
  ----------------------------------------------------------------------------
  C08                         9.44      9.44     56.71      0.01         0.01
  C09                         0.01      0.01     97.74      0.01         0.01
  C10                         0.01      0.01     86.25      0.01         0.01
  C11                         0.01      0.01      0.40      0.01         0.01
  C12                         0.01      0.01     26.46      0.01         0.01
  C18                         0.01      0.01      4.21      0.01         0.01
  C19                         3.37      3.37     10.08      0.01         0.01
  C21                         7.92      7.92     28.58      0.01         0.01
  C22                         0.01      0.01      7.87      0.01         0.01
  C95-53307                   0.01      0.01     42.53      0.01         0.01
  
  
  ***************************
  Link Pollutant Load Summary
  ***************************
  
  ----------------------------------
                                 TSS
  Link                           lbs
  ----------------------------------
  C08                        265.453
  C09                        366.411
  C10                        935.050
  C11                        790.513
  C12                        806.323
  C18                        106.048
  C19                        167.636
  C21                        133.994
  C22                         88.085
  C95-53307                  566.140
  OR34                       106.060
  OR35                       204.189
  OR36                       305.184
  OR38                       545.404
  OR39                       349.240
  OR43                        88.093
  OR44                       364.371
  OR45                       935.002
  OR46                       790.504
  OR47                       806.000
  OR48                      1251.058
  

  Analysis begun on:  Mon Apr  1 18:20:53 2019
  Analysis ended on:  Mon Apr  1 18:20:58 2019
  Total elapsed time: 00:00:05