
  EPA STORM WATER MANAGEMENT MODEL - VERSION 5.1 (Build 5.2.0.dev4)
  --------------------------------------------------------------

  
  **********************           Volume        Volume
  Rainfall Dependent I/I        acre-feet      10^6 gal
  **********************        ---------     ---------
  Sewershed Rainfall ......        89.718        29.236
  RDII Produced ...........        12.402         4.042
  RDII Ratio ..............         0.138
  
  
  *********************************************************
  NOTE: The summary statistics displayed in this report are
  based on results found at every computational time step,  
  not just on results from each reporting time step.
  *********************************************************
  
  ****************
  Analysis Options
  ****************
  Flow Units ............... CFS
  Process Models:
    Rainfall/Runoff ........ YES
    RDII ................... YES
    Snowmelt ............... NO
    Groundwater ............ NO
    Flow Routing ........... YES
    Ponding Allowed ........ YES
    Water Quality .......... YES
  Infiltration Method ...... GREEN_AMPT
  Flow Routing Method ...... DYNWAVE
  Starting Date ............ 07/05/2014 12:00:00
  Ending Date .............. 07/10/2014 00:05:00
  Antecedent Dry Days ...... 5.0
  Report Time Step ......... 00:01:00
  Wet Time Step ............ 00:01:00
  Dry Time Step ............ 00:01:00
  Routing Time Step ........ 60.00 sec
  Variable Time Step ....... YES
  Maximum Trials ........... 8
  Number of Threads ........ 1
  Head Tolerance ........... 0.005000 ft
  
  
  **************************        Volume         Depth
  Runoff Quantity Continuity     acre-feet        inches
  **************************     ---------       -------
  Total Precipitation ......        65.523         3.818
  Evaporation Loss .........         0.000         0.000
  Infiltration Loss ........        20.388         1.188
  Surface Runoff ...........        44.517         2.594
  Final Storage ............         0.633         0.037
  Continuity Error (%) .....        -0.023
  
  
  **************************           TSS
  Runoff Quality Continuity            lbs
  **************************    ----------
  Initial Buildup ..........      3394.520
  Surface Buildup ..........      2422.552
  Wet Deposition ...........         0.000
  Sweeping Removal .........         0.000
  Infiltration Loss ........         0.000
  BMP Removal ..............         0.000
  Surface Runoff ...........      2515.899
  Remaining Buildup ........      3301.172
  Continuity Error (%) .....         0.000
  
  
  **************************        Volume        Volume
  Flow Routing Continuity        acre-feet      10^6 gal
  **************************     ---------     ---------
  Dry Weather Inflow .......         0.000         0.000
  Wet Weather Inflow .......        44.464        14.489
  Groundwater Inflow .......         0.000         0.000
  RDII Inflow ..............        12.403         4.042
  External Inflow ..........         0.000         0.000
  External Outflow .........        30.615         9.976
  Flooding Loss ............         7.548         2.460
  Evaporation Loss .........         0.000         0.000
  Exfiltration Loss ........         0.000         0.000
  Initial Stored Volume ....         0.000         0.000
  Final Stored Volume ......        18.978         6.184
  Continuity Error (%) .....        -0.484
  
  
  **************************           TSS
  Quality Routing Continuity           lbs
  **************************    ----------
  Dry Weather Inflow .......         0.000
  Wet Weather Inflow .......      2512.318
  Groundwater Inflow .......         0.000
  RDII Inflow ..............         0.000
  External Inflow ..........         0.000
  External Outflow .........      1294.092
  Flooding Loss ............       451.992
  Exfiltration Loss ........         0.000
  Mass Reacted .............         0.000
  Initial Stored Mass ......         0.000
  Final Stored Mass ........       775.533
  Continuity Error (%) .....        -0.370
  
  
  *************************
  Highest Continuity Errors
  *************************
  Node J23 (-2.88%)
  Node 93-49921 (1.10%)
  
  
  ***************************
  Time-Step Critical Elements
  ***************************
  Link C11 (73.21%)
  Link C09 (19.87%)
  Link C22 (5.44%)
  
  
  ********************************
  Highest Flow Instability Indexes
  ********************************
  Link OR47 (14)
  Link C12 (13)
  Link OR43 (3)
  Link C22 (3)
  Link OR34 (2)
  
  
  *************************
  Routing Time Step Summary
  *************************
  Minimum Time Step           :     3.68 sec
  Average Time Step           :    15.70 sec
  Maximum Time Step           :    60.00 sec
  Percent in Steady State     :    -0.00
  Average Iterations per Step :     2.06
  Percent Not Converging      :     0.71
  
  
  ***************************
  Subcatchment Runoff Summary
  ***************************
  
  --------------------------------------------------------------------------------------------------------
                            Total      Total      Total      Total      Total       Total     Peak  Runoff
                           Precip      Runon       Evap      Infil     Runoff      Runoff   Runoff   Coeff
  Subcatchment                 in         in         in         in         in    10^6 gal      CFS
  --------------------------------------------------------------------------------------------------------
  102                        3.82       0.00       0.00       1.38       2.40        0.19    12.27   0.629
  103                        3.82       0.00       0.00       1.80       2.00        0.30    23.63   0.524
  115                        3.82       0.00       0.00       1.92       1.88        0.53    27.27   0.492
  120                        3.82       0.00       0.00       1.46       2.33        0.42    29.27   0.609
  1472                       3.82       0.00       0.00       1.10       2.68        0.23    14.93   0.701
  1497                       3.82       0.00       0.00       0.42       3.35        1.36    73.40   0.876
  1499                       3.82       0.00       0.00       0.14       3.62        2.48   123.50   0.947
  1503                       3.82       0.00       0.00       0.78       3.00        0.11     6.37   0.786
  1506                       3.82       0.00       0.00       1.54       2.25        0.62    43.64   0.590
  1570                       3.82       0.00       0.00       2.07       1.73        0.37    30.13   0.453
  1648                       3.82       0.00       0.00       1.73       2.06        0.15    11.05   0.540
  1736                       3.82       0.00       0.00       1.41       2.38        0.97    65.92   0.623
  1780                       3.82       0.00       0.00       1.89       1.90        0.12     9.17   0.499
  54                         3.82       0.00       0.00       0.40       3.37        3.33   176.44   0.883
  57                         3.82       0.00       0.00       2.30       1.50        0.41    22.62   0.393
  62                         3.82       0.00       0.00       1.92       1.88        0.54    44.39   0.492
  93                         3.82       0.00       0.00       1.41       2.38        0.53    37.20   0.623
  94                         3.82       0.00       0.00       1.89       1.91        0.66    54.47   0.500
  97                         3.82       0.00       0.00       1.57       2.22        1.18    85.41   0.581
  
  
  ****************************
  Subcatchment Washoff Summary
  ****************************
  
  ----------------------------------
                                 TSS
  Subcatchment                   lbs
  ----------------------------------
  102                         35.191
  103                         61.949
  115                        106.977
  120                         81.674
  1472                        41.297
  1497                       206.874
  1499                       358.563
  1503                        17.856
  1506                       121.984
  1570                        75.117
  1648                        30.840
  1736                       184.829
  1780                        24.493
  54                         503.916
  57                          84.023
  62                         109.713
  93                         101.358
  94                         134.666
  97                         234.580
  ----------------------------------
  System                    2515.899
  
  
  ******************
  Node Depth Summary
  ******************
  
  ---------------------------------------------------------------------------------
                                 Average  Maximum  Maximum  Time of Max    Reported
                                   Depth    Depth      HGL   Occurrence   Max Depth
  Node                 Type         Feet     Feet     Feet  days hr:min        Feet
  ---------------------------------------------------------------------------------
  J13                  JUNCTION     0.05     0.85   889.02     0  12:22        0.85
  J14                  JUNCTION     0.09     1.00   882.00     0  11:55        1.00
  J15                  JUNCTION     0.18     1.00   872.00     0  11:08        1.00
  J18                  JUNCTION     0.26     1.00   875.22     0  11:55        1.00
  J19                  JUNCTION     0.14     0.23   858.51     1  02:22        0.23
  J22                  JUNCTION     0.03     0.32   879.32     0  12:23        0.32
  J23                  JUNCTION     0.10     0.27   868.27     0  13:53        0.27
  J24                  JUNCTION     0.47     0.51   846.51     2  01:42        0.51
  J25                  JUNCTION     0.28     0.32   832.82     3  22:48        0.32
  J26                  JUNCTION     0.42     0.64   822.14     0  12:07        0.64
  ZOF1                 OUTFALL      0.00     0.00   810.00     0  00:00        0.00
  93-49743             STORAGE      1.24    10.54   884.76     0  12:40       10.54
  93-49868             STORAGE      0.21     4.79   892.96     0  12:21        4.79
  93-49919             STORAGE      0.91     3.83   871.83     0  13:53        3.83
  93-49921             STORAGE      6.76     8.35   854.35     2  01:42        8.35
  93-50074             STORAGE      3.46     8.80   867.08     1  02:20        8.80
  93-50076             STORAGE      2.06     2.75   835.25     3  22:48        2.75
  93-50077             STORAGE      1.16     3.53   813.53     0  15:51        3.53
  93-50081             STORAGE      0.79     1.88   823.38     0  12:06        1.88
  93-50225             STORAGE      0.56     5.55   876.55     0  16:08        5.55
  93-90357             STORAGE      0.29     5.91   884.91     0  12:23        5.91
  93-90358             STORAGE      0.29     5.38   886.38     0  12:21        5.38
  
  
  *******************
  Node Inflow Summary
  *******************
  
  -------------------------------------------------------------------------------------------------
                                  Maximum  Maximum                  Lateral       Total        Flow
                                  Lateral    Total  Time of Max      Inflow      Inflow     Balance
                                   Inflow   Inflow   Occurrence      Volume      Volume       Error
  Node                 Type           CFS      CFS  days hr:min    10^6 gal    10^6 gal     Percent
  -------------------------------------------------------------------------------------------------
  J13                  JUNCTION      0.00     5.02     0  12:20           0       0.661       0.009
  J14                  JUNCTION      0.00     8.25     0  12:21           0        1.28      -0.008
  J15                  JUNCTION      0.00     6.68     0  16:08           0        1.83      -0.008
  J18                  JUNCTION      0.00     8.80     0  12:40           0        3.53      -0.006
  J19                  JUNCTION      0.00     3.22     1  02:20           0        4.48      -0.075
  J22                  JUNCTION      0.00     3.19     0  12:23           0       0.554      -0.115
  J23                  JUNCTION      0.00     2.48     0  13:53           0        2.04      -2.796
  J24                  JUNCTION      0.00     2.88     2  01:42           0        7.03       0.015
  J25                  JUNCTION      0.00     2.50     3  22:48           0        5.64       0.003
  J26                  JUNCTION      0.00     4.11     0  12:06           0        5.74      -0.010
  ZOF1                 OUTFALL       0.00     6.85     0  15:51           0        9.98       0.000
  93-49743             STORAGE     143.14   143.14     0  12:00        3.53        3.53       0.004
  93-49868             STORAGE      54.47    54.47     0  12:00       0.661       0.661       0.012
  93-49919             STORAGE     100.35   101.86     0  12:00        1.41        2.04      -0.135
  93-49921             STORAGE     168.41   172.89     0  12:00        4.56        11.1       1.111
  93-50074             STORAGE     110.60   115.36     0  12:00        1.89        4.48      -0.145
  93-50076             STORAGE      22.62    24.18     0  12:00       0.413        7.44       0.091
  93-50077             STORAGE     176.83   180.33     0  12:00        4.47        10.2       0.008
  93-50081             STORAGE       6.37     7.24     0  12:00       0.109        5.75       0.037
  93-50225             STORAGE      23.63    31.17     0  12:00       0.304        1.82      -0.125
  93-90357             STORAGE      42.40    42.40     0  12:00       0.554       0.554       0.014
  93-90358             STORAGE      43.64    47.89     0  12:00        0.62        1.28      -0.007
  
  
  **********************
  Node Surcharge Summary
  **********************
  
  Surcharging occurs when water rises above the top of the highest conduit.
  ---------------------------------------------------------------------
                                               Max. Height   Min. Depth
                                   Hours       Above Crown    Below Rim
  Node                 Type      Surcharged           Feet         Feet
  ---------------------------------------------------------------------
  J14                  JUNCTION        4.37          0.000        0.000
  J15                  JUNCTION        9.77          0.000        0.000
  J18                  JUNCTION       13.03          0.000        0.000
  
  
  *********************
  Node Flooding Summary
  *********************
  
  Flooding refers to all water that overflows a node, whether it ponds or not.
  --------------------------------------------------------------------------
                                                             Total   Maximum
                                 Maximum   Time of Max       Flood    Ponded
                        Hours       Rate    Occurrence      Volume     Depth
  Node                 Flooded       CFS   days hr:min    10^6 gal      Feet
  --------------------------------------------------------------------------
  J14                     4.37      3.66      0  12:31       0.315     0.000
  J15                     9.77      6.05      0  15:10       1.199     0.000
  J18                    13.03      4.37      0  12:51       0.946     0.000
  
  
  **********************
  Storage Volume Summary
  **********************
  
  --------------------------------------------------------------------------------------------------
                         Average     Avg  Evap Exfil       Maximum     Max    Time of Max    Maximum
                          Volume    Pcnt  Pcnt  Pcnt        Volume    Pcnt     Occurrence    Outflow
  Storage Unit          1000 ft3    Full  Loss  Loss      1000 ft3    Full    days hr:min        CFS
  --------------------------------------------------------------------------------------------------
  93-49743                11.780       4     0     0       148.427      54       0  12:40       8.80
  93-49868                 1.062       1     0     0        42.170      35       0  12:21       5.02
  93-49919                32.392       7     0     0       153.628      34       0  13:53       2.48
  93-49921               704.958      63     0     0       901.374      80       2  01:42       2.88
  93-50074               106.352      15     0     0       320.471      46       1  02:20       3.22
  93-50076               179.304      16     0     0       244.297      22       3  22:48       2.50
  93-50077                88.523       8     0     0       286.243      27       0  15:51       6.85
  93-50081                 0.783       3     0     0         2.876      10       0  12:06       4.11
  93-50225                 4.706       1     0     0        55.190      10       0  16:08       6.68
  93-90357                 1.381       2     0     0        37.180      50       0  12:23       3.19
  93-90358                 1.248       1     0     0        36.809      26       0  12:21       8.25
  
  
  ***********************
  Outfall Loading Summary
  ***********************
  
  -------------------------------------------------------------------------
                         Flow       Avg       Max       Total         Total
                         Freq      Flow      Flow      Volume           TSS
  Outfall Node           Pcnt       CFS       CFS    10^6 gal           lbs
  -------------------------------------------------------------------------
  ZOF1                  99.86      3.59      6.85       9.976      1294.163
  -------------------------------------------------------------------------
  System                99.86      3.59      6.85       9.976      1294.163
  
  
  ********************
  Link Flow Summary
  ********************
  
  -----------------------------------------------------------------------------
                                 Maximum  Time of Max   Maximum    Max/    Max/
                                  |Flow|   Occurrence   |Veloc|    Full    Full
  Link                 Type          CFS  days hr:min    ft/sec    Flow   Depth
  -----------------------------------------------------------------------------
  C08                  CONDUIT      5.36     0  11:54      6.96    0.97    1.00
  C09                  CONDUIT     16.45     0  03:24    >50.00    1.03    0.63
  C10                  CONDUIT      2.88     2  01:42      6.55    0.52    0.76
  C11                  CONDUIT      2.50     3  22:48      5.09    0.22    0.62
  C12                  CONDUIT      4.11     0  12:07      6.85    0.74    0.82
  C18                  CONDUIT      5.02     0  12:22      6.66    0.66    0.93
  C19                  CONDUIT      5.64     0  11:55      7.33    0.96    1.00
  C21                  CONDUIT      2.26     0  11:01      3.01    0.97    1.00
  C22                  CONDUIT      3.19     0  12:24    >50.00    0.12    0.62
  C95-53307            CONDUIT      3.22     1  02:22     18.71    0.00    0.52
  OR34                 ORIFICE      5.02     0  12:20                          
  OR35                 ORIFICE      8.25     0  12:21                          
  OR36                 ORIFICE      6.68     0  16:08                          
  OR38                 ORIFICE      3.22     1  02:20                          
  OR39                 ORIFICE      8.80     0  12:40                          
  OR43                 ORIFICE      3.19     0  12:23                          
  OR44                 ORIFICE      2.48     0  13:53                          
  OR45                 ORIFICE      2.88     2  01:42                          
  OR46                 ORIFICE      2.50     3  22:48                          
  OR47                 ORIFICE      4.11     0  12:06                          
  OR48                 ORIFICE      6.85     0  15:51                          
  
  
  ***************************
  Flow Classification Summary
  ***************************
  
  -------------------------------------------------------------------------------------
                      Adjusted    ---------- Fraction of Time in Flow Class ---------- 
                       /Actual         Up    Down  Sub   Sup   Up    Down  Norm  Inlet 
  Conduit               Length    Dry  Dry   Dry   Crit  Crit  Crit  Crit  Ltd   Ctrl  
  -------------------------------------------------------------------------------------
  C08                     1.00   0.00  0.00  0.00  0.70  0.29  0.00  0.00  0.83  0.00
  C09                     1.00   0.00  0.01  0.00  0.82  0.17  0.00  0.00  0.97  0.00
  C10                     1.00   0.00  0.00  0.00  0.93  0.07  0.00  0.00  0.90  0.00
  C11                     1.00   0.00  0.00  0.00  0.04  0.96  0.00  0.00  0.99  0.00
  C12                     1.00   0.00  0.00  0.00  0.39  0.61  0.00  0.00  0.97  0.00
  C18                     1.00   0.00  0.00  0.00  0.95  0.05  0.00  0.00  0.41  0.00
  C19                     1.00   0.00  0.32  0.00  0.67  0.01  0.00  0.00  0.94  0.00
  C21                     1.00   0.00  0.00  0.00  0.99  0.01  0.00  0.00  0.82  0.00
  C22                     1.00   0.00  0.48  0.00  0.52  0.00  0.00  0.00  0.99  0.00
  C95-53307               1.00   0.00  0.00  0.00  0.99  0.01  0.00  0.00  0.98  0.00
  
  
  *************************
  Conduit Surcharge Summary
  *************************
  
  ----------------------------------------------------------------------------
                                                           Hours        Hours 
                         --------- Hours Full --------   Above Full   Capacity
  Conduit                Both Ends  Upstream  Dnstream   Normal Flow   Limited
  ----------------------------------------------------------------------------
  C08                        13.03     13.03     63.95      0.01         0.01
  C09                         0.01      0.01     98.94      0.02         0.01
  C10                         0.01      0.01     90.71      0.01         0.01
  C11                         0.01      0.01      0.59      0.01         0.01
  C12                         0.01      0.01     32.67      0.01         0.01
  C18                         0.01      0.01      5.34      0.01         0.01
  C19                         4.37      4.37     13.43      0.01         0.01
  C21                         9.77      9.77     32.22      0.01         0.01
  C22                         0.01      0.01      9.60      0.01         0.01
  C95-53307                   0.01      0.01     69.93      0.01         0.01
  
  
  ***************************
  Link Pollutant Load Summary
  ***************************
  
  ----------------------------------
                                 TSS
  Link                           lbs
  ----------------------------------
  C08                        283.978
  C09                        400.012
  C10                        953.441
  C11                        805.454
  C12                        822.296
  C18                        134.466
  C19                        192.322
  C21                        122.367
  C22                        110.314
  C95-53307                  611.590
  OR34                       134.436
  OR35                       256.280
  OR36                       364.752
  OR38                       590.682
  OR39                       428.471
  OR43                       110.161
  OR44                       397.586
  OR45                       953.392
  OR46                       805.443
  OR47                       822.066
  OR48                      1294.163
  

  Analysis begun on:  Mon Apr  1 18:21:03 2019
  Analysis ended on:  Mon Apr  1 18:21:08 2019
  Total elapsed time: 00:00:05