
  EPA STORM WATER MANAGEMENT MODEL - VERSION 5.1 (Build 5.2.0.dev4)
  --------------------------------------------------------------

  
  **********************           Volume        Volume
  Rainfall Dependent I/I        acre-feet      10^6 gal
  **********************        ---------     ---------
  Sewershed Rainfall ......        83.729        27.284
  RDII Produced ...........        11.504         3.749
  RDII Ratio ..............         0.137
  
  
  *********************************************************
  NOTE: The summary statistics displayed in this report are
  based on results found at every computational time step,  
  not just on results from each reporting time step.
  *********************************************************
  
  ****************
  Analysis Options
  ****************
  Flow Units ............... CFS
  Process Models:
    Rainfall/Runoff ........ YES
    RDII ................... YES
    Snowmelt ............... NO
    Groundwater ............ NO
    Flow Routing ........... YES
    Ponding Allowed ........ YES
    Water Quality .......... YES
  Infiltration Method ...... GREEN_AMPT
  Flow Routing Method ...... DYNWAVE
  Starting Date ............ 07/05/2014 12:00:00
  Ending Date .............. 07/10/2014 00:05:00
  Antecedent Dry Days ...... 5.0
  Report Time Step ......... 00:01:00
  Wet Time Step ............ 00:01:00
  Dry Time Step ............ 00:01:00
  Routing Time Step ........ 60.00 sec
  Variable Time Step ....... YES
  Maximum Trials ........... 8
  Number of Threads ........ 1
  Head Tolerance ........... 0.005000 ft
  
  
  **************************        Volume         Depth
  Runoff Quantity Continuity     acre-feet        inches
  **************************     ---------       -------
  Total Precipitation ......        61.149         3.563
  Evaporation Loss .........         0.000         0.000
  Infiltration Loss ........        19.353         1.128
  Surface Runoff ...........        41.177         2.399
  Final Storage ............         0.633         0.037
  Continuity Error (%) .....        -0.023
  
  
  **************************           TSS
  Runoff Quality Continuity            lbs
  **************************    ----------
  Initial Buildup ..........      3394.520
  Surface Buildup ..........      2326.032
  Wet Deposition ...........         0.000
  Sweeping Removal .........         0.000
  Infiltration Loss ........         0.000
  BMP Removal ..............         0.000
  Surface Runoff ...........      2401.669
  Remaining Buildup ........      3318.883
  Continuity Error (%) .....         0.000
  
  
  **************************        Volume        Volume
  Flow Routing Continuity        acre-feet      10^6 gal
  **************************     ---------     ---------
  Dry Weather Inflow .......         0.000         0.000
  Wet Weather Inflow .......        41.142        13.407
  Groundwater Inflow .......         0.000         0.000
  RDII Inflow ..............        11.505         3.749
  External Inflow ..........         0.000         0.000
  External Outflow .........        33.215        10.824
  Flooding Loss ............        18.982         6.185
  Evaporation Loss .........         0.000         0.000
  Exfiltration Loss ........         0.000         0.000
  Initial Stored Volume ....         0.000         0.000
  Final Stored Volume ......         0.638         0.208
  Continuity Error (%) .....        -0.357
  
  
  **************************           TSS
  Quality Routing Continuity           lbs
  **************************    ----------
  Dry Weather Inflow .......         0.000
  Wet Weather Inflow .......      2399.322
  Groundwater Inflow .......         0.000
  RDII Inflow ..............         0.000
  External Inflow ..........         0.000
  External Outflow .........      1413.012
  Flooding Loss ............      1008.824
  Exfiltration Loss ........         0.000
  Mass Reacted .............         0.000
  Initial Stored Mass ......         0.000
  Final Stored Mass ........         6.724
  Continuity Error (%) .....        -1.219
  
  
  ***************************
  Time-Step Critical Elements
  ***************************
  Link C11 (72.23%)
  Link C09 (17.00%)
  Link C22 (1.42%)
  
  
  ********************************
  Highest Flow Instability Indexes
  ********************************
  Link C11 (26)
  Link OR46 (25)
  Link OR47 (21)
  Link OR44 (9)
  Link C09 (8)
  
  
  *************************
  Routing Time Step Summary
  *************************
  Minimum Time Step           :     3.81 sec
  Average Time Step           :    16.02 sec
  Maximum Time Step           :    60.00 sec
  Percent in Steady State     :     0.00
  Average Iterations per Step :     2.25
  Percent Not Converging      :     0.81
  
  
  ***************************
  Subcatchment Runoff Summary
  ***************************
  
  --------------------------------------------------------------------------------------------------------
                            Total      Total      Total      Total      Total       Total     Peak  Runoff
                           Precip      Runon       Evap      Infil     Runoff      Runoff   Runoff   Coeff
  Subcatchment                 in         in         in         in         in    10^6 gal      CFS
  --------------------------------------------------------------------------------------------------------
  102                        3.56       0.00       0.00       1.31       2.22        0.17    11.20   0.622
  103                        3.56       0.00       0.00       1.70       1.84        0.28    21.48   0.515
  115                        3.56       0.00       0.00       1.82       1.72        0.48    24.63   0.482
  120                        3.56       0.00       0.00       1.39       2.15        0.39    26.74   0.602
  1472                       3.56       0.00       0.00       1.05       2.48        0.22    13.74   0.696
  1497                       3.56       0.00       0.00       0.40       3.11        1.27    68.05   0.874
  1499                       3.56       0.00       0.00       0.14       3.37        2.31   114.64   0.946
  1503                       3.56       0.00       0.00       0.74       2.78        0.10     5.88   0.781
  1506                       3.56       0.00       0.00       1.46       2.08        0.57    39.76   0.583
  1570                       3.56       0.00       0.00       1.97       1.58        0.34    27.11   0.443
  1648                       3.56       0.00       0.00       1.64       1.89        0.14    10.02   0.531
  1736                       3.56       0.00       0.00       1.34       2.19        0.89    60.21   0.616
  1780                       3.56       0.00       0.00       1.80       1.74        0.11     8.28   0.489
  54                         3.56       0.00       0.00       0.37       3.14        3.10   163.48   0.880
  57                         3.56       0.00       0.00       2.18       1.36        0.38    20.30   0.383
  62                         3.56       0.00       0.00       1.82       1.72        0.49    40.31   0.483
  93                         3.56       0.00       0.00       1.34       2.19        0.49    34.10   0.616
  94                         3.56       0.00       0.00       1.79       1.75        0.61    49.64   0.491
  97                         3.56       0.00       0.00       1.49       2.04        1.09    77.94   0.573
  
  
  ****************************
  Subcatchment Washoff Summary
  ****************************
  
  ----------------------------------
                                 TSS
  Subcatchment                   lbs
  ----------------------------------
  102                         33.925
  103                         56.866
  115                         97.765
  120                         78.754
  1472                        40.361
  1497                       201.904
  1499                       349.661
  1503                        17.443
  1506                       116.238
  1570                        68.502
  1648                        28.335
  1736                       178.206
  1780                        22.443
  54                         491.765
  57                          76.334
  62                         100.444
  93                          97.742
  94                         123.444
  97                         221.535
  ----------------------------------
  System                    2401.669
  
  
  ******************
  Node Depth Summary
  ******************
  
  ---------------------------------------------------------------------------------
                                 Average  Maximum  Maximum  Time of Max    Reported
                                   Depth    Depth      HGL   Occurrence   Max Depth
  Node                 Type         Feet     Feet     Feet  days hr:min        Feet
  ---------------------------------------------------------------------------------
  J13                  JUNCTION     0.07     1.00   889.17     0  11:57        1.00
  J14                  JUNCTION     0.11     1.00   882.00     0  11:50        1.00
  J15                  JUNCTION     0.22     1.00   872.00     0  11:08        1.00
  J18                  JUNCTION     0.31     1.00   875.22     0  11:46        1.00
  J19                  JUNCTION     0.14     0.40   858.68     0  12:39        0.40
  J22                  JUNCTION     0.04     0.59   879.59     0  12:10        0.59
  J23                  JUNCTION     0.12     0.49   868.49     0  12:23        0.49
  J24                  JUNCTION     0.69     1.00   847.00     0  11:53        1.00
  J25                  JUNCTION     0.38     0.49   832.99     1  19:21        0.49
  J26                  JUNCTION     0.72     1.00   822.50     0  12:04        1.00
  ZOF1                 OUTFALL      0.00     0.00   810.00     0  00:00        0.00
  93-49743             STORAGE      0.95     9.05   883.27     0  12:23        9.05
  93-49868             STORAGE      0.18     4.04   892.21     0  12:13        4.04
  93-49919             STORAGE      0.38     2.73   870.73     0  12:23        2.73
  93-49921             STORAGE      2.69     6.32   852.32     0  21:32        6.32
  93-50074             STORAGE      0.84     4.87   863.15     0  12:39        4.87
  93-50076             STORAGE      1.09     1.58   834.08     1  19:21        1.58
  93-50077             STORAGE      3.16     4.64   814.64     1  00:24        4.64
  93-50081             STORAGE      1.45     2.33   823.83     0  12:08        2.33
  93-50225             STORAGE      0.51     5.21   876.21     0  13:01        5.21
  93-90357             STORAGE      0.14     4.27   883.27     0  12:10        4.27
  93-90358             STORAGE      0.31     5.05   886.05     0  12:13        5.05
  
  
  *******************
  Node Inflow Summary
  *******************
  
  -------------------------------------------------------------------------------------------------
                                  Maximum  Maximum                  Lateral       Total        Flow
                                  Lateral    Total  Time of Max      Inflow      Inflow     Balance
                                   Inflow   Inflow   Occurrence      Volume      Volume       Error
  Node                 Type           CFS      CFS  days hr:min    10^6 gal    10^6 gal     Percent
  -------------------------------------------------------------------------------------------------
  J13                  JUNCTION      0.00     9.10     0  12:13           0       0.606       0.002
  J14                  JUNCTION      0.00    10.50     0  12:13           0        1.07      -0.005
  J15                  JUNCTION      0.00    10.71     0  13:01           0        1.56       0.023
  J18                  JUNCTION      0.00    14.80     0  12:23           0        3.26       0.002
  J19                  JUNCTION      0.00    11.03     0  12:39           0        4.15      -0.060
  J22                  JUNCTION      0.00    10.01     0  12:10           0       0.507       0.012
  J23                  JUNCTION      0.00     7.80     0  12:23           0        2.07       0.262
  J24                  JUNCTION      0.00    12.03     0  21:32           0        10.4       0.001
  J25                  JUNCTION      0.00     5.44     1  19:21           0         7.1       0.007
  J26                  JUNCTION      0.00     6.02     0  12:08           0         7.2       0.004
  ZOF1                 OUTFALL       0.00     6.73     1  00:24           0        10.8       0.000
  93-49743             STORAGE     130.29   130.29     0  12:00        3.26        3.26       0.003
  93-49868             STORAGE      49.64    49.64     0  12:00       0.607       0.606       0.014
  93-49919             STORAGE      91.68    93.59     0  12:00         1.3        2.07      -0.106
  93-49921             STORAGE     155.41   171.03     0  12:00        4.24        10.4      -0.538
  93-50074             STORAGE     102.15   107.23     0  12:00        1.75        4.15      -0.036
  93-50076             STORAGE      20.30    25.79     0  12:00       0.376        7.19      -0.007
  93-50077             STORAGE     163.82   169.23     0  12:00        4.16        10.9      -0.008
  93-50081             STORAGE       5.88     9.47     0  12:00       0.101         7.2      -0.005
  93-50225             STORAGE      21.48    34.82     0  12:00       0.279        1.56      -0.126
  93-90357             STORAGE      38.31    38.31     0  12:00       0.508       0.507       0.001
  93-90358             STORAGE      39.76    45.49     0  12:00       0.571        1.07      -0.028
  
  
  **********************
  Node Surcharge Summary
  **********************
  
  Surcharging occurs when water rises above the top of the highest conduit.
  ---------------------------------------------------------------------
                                               Max. Height   Min. Depth
                                   Hours       Above Crown    Below Rim
  Node                 Type      Surcharged           Feet         Feet
  ---------------------------------------------------------------------
  J13                  JUNCTION        1.55          0.000        0.000
  J14                  JUNCTION        2.60          0.000        0.000
  J15                  JUNCTION        4.84          0.000        0.000
  J18                  JUNCTION        5.71          0.000        0.000
  J24                  JUNCTION       30.36          0.000        0.000
  J26                  JUNCTION       31.44          0.000        0.000
  
  
  *********************
  Node Flooding Summary
  *********************
  
  Flooding refers to all water that overflows a node, whether it ponds or not.
  --------------------------------------------------------------------------
                                                             Total   Maximum
                                 Maximum   Time of Max       Flood    Ponded
                        Hours       Rate    Occurrence      Volume     Depth
  Node                 Flooded       CFS   days hr:min    10^6 gal      Feet
  --------------------------------------------------------------------------
  J13                     1.55      4.11      0  12:13       0.102     0.000
  J14                     2.60      5.86      0  12:17       0.300     0.000
  J15                     4.84      9.13      0  12:58       0.800     0.000
  J18                     5.71      9.97      0  12:23       0.869     0.000
  J24                    30.36      6.55      0  21:37       3.609     0.000
  J26                    31.44      0.93      0  12:09       0.504     0.000
  
  
  **********************
  Storage Volume Summary
  **********************
  
  --------------------------------------------------------------------------------------------------
                         Average     Avg  Evap Exfil       Maximum     Max    Time of Max    Maximum
                          Volume    Pcnt  Pcnt  Pcnt        Volume    Pcnt     Occurrence    Outflow
  Storage Unit          1000 ft3    Full  Loss  Loss      1000 ft3    Full    days hr:min        CFS
  --------------------------------------------------------------------------------------------------
  93-49743                 6.590       2     0     0       114.026      41       0  12:23      14.80
  93-49868                 0.620       1     0     0        30.658      25       0  12:13       9.10
  93-49919                10.888       2     0     0        99.932      22       0  12:23       7.80
  93-49921               256.799      23     0     0       638.966      57       0  21:32      12.03
  93-50074                17.952       3     0     0       126.169      18       0  12:39      11.03
  93-50076                90.748       8     0     0       133.166      12       1  19:21       5.44
  93-50077               258.965      25     0     0       392.134      37       1  00:24       6.73
  93-50081                 2.147       8     0     0         4.059      14       0  12:08       6.02
  93-50225                 3.857       1     0     0        48.318       9       0  13:01      10.71
  93-90357                 0.419       1     0     0        22.428      30       0  12:10      10.01
  93-90358                 1.081       1     0     0        31.961      23       0  12:13      10.50
  
  
  ***********************
  Outfall Loading Summary
  ***********************
  
  -------------------------------------------------------------------------
                         Flow       Avg       Max       Total         Total
                         Freq      Flow      Flow      Volume           TSS
  Outfall Node           Pcnt       CFS       CFS    10^6 gal           lbs
  -------------------------------------------------------------------------
  ZOF1                  99.85      5.20      6.73      10.823      1412.984
  -------------------------------------------------------------------------
  System                99.85      5.20      6.73      10.823      1412.984
  
  
  ********************
  Link Flow Summary
  ********************
  
  -----------------------------------------------------------------------------
                                 Maximum  Time of Max   Maximum    Max/    Max/
                                  |Flow|   Occurrence   |Veloc|    Full    Full
  Link                 Type          CFS  days hr:min    ft/sec    Flow   Depth
  -----------------------------------------------------------------------------
  C08                  CONDUIT      5.87     0  11:45      7.60    1.06    1.00
  C09                  CONDUIT      7.80     0  12:23     12.41    0.49    0.75
  C10                  CONDUIT      5.90     1  18:18      8.83    1.06    1.00
  C11                  CONDUIT      5.44     1  19:22      8.69    0.48    0.74
  C12                  CONDUIT      5.64     0  12:02      7.34    1.01    1.00
  C18                  CONDUIT      6.69     0  11:57      8.88    0.88    1.00
  C19                  CONDUIT      5.93     0  11:49      7.70    1.01    1.00
  C21                  CONDUIT      2.55     0  11:18      3.45    1.10    1.00
  C22                  CONDUIT     10.01     0  12:10      8.56    0.37    0.71
  C95-53307            CONDUIT     11.03     0  12:40      2.63    0.01    0.51
  OR34                 ORIFICE      9.10     0  12:13                          
  OR35                 ORIFICE     10.50     0  12:13                          
  OR36                 ORIFICE     10.71     0  13:01                          
  OR38                 ORIFICE     11.03     0  12:39                          
  OR39                 ORIFICE     14.80     0  12:23                          
  OR43                 ORIFICE     10.01     0  12:10                          
  OR44                 ORIFICE      7.80     0  12:23                          
  OR45                 ORIFICE     12.03     0  21:32                          
  OR46                 ORIFICE      5.44     1  19:21                          
  OR47                 ORIFICE      6.02     0  12:08                          
  OR48                 ORIFICE      6.73     1  00:24                          
  
  
  ***************************
  Flow Classification Summary
  ***************************
  
  -------------------------------------------------------------------------------------
                      Adjusted    ---------- Fraction of Time in Flow Class ---------- 
                       /Actual         Up    Down  Sub   Sup   Up    Down  Norm  Inlet 
  Conduit               Length    Dry  Dry   Dry   Crit  Crit  Crit  Crit  Ltd   Ctrl  
  -------------------------------------------------------------------------------------
  C08                     1.00   0.00  0.00  0.00  0.17  0.83  0.00  0.00  0.35  0.00
  C09                     1.00   0.00  0.01  0.00  0.77  0.22  0.00  0.00  0.97  0.00
  C10                     1.00   0.00  0.00  0.00  0.63  0.36  0.00  0.00  0.61  0.00
  C11                     1.00   0.00  0.00  0.00  0.02  0.98  0.00  0.00  0.99  0.00
  C12                     1.00   0.00  0.00  0.00  0.72  0.28  0.00  0.00  0.38  0.00
  C18                     1.00   0.00  0.00  0.00  0.99  0.01  0.00  0.00  0.79  0.00
  C19                     1.00   0.00  0.12  0.00  0.86  0.02  0.00  0.00  0.96  0.00
  C21                     1.00   0.00  0.00  0.00  0.99  0.01  0.00  0.00  0.42  0.00
  C22                     1.00   0.00  0.29  0.00  0.68  0.03  0.00  0.00  0.99  0.00
  C95-53307               1.00   0.00  0.00  0.00  0.99  0.01  0.00  0.00  0.97  0.00
  
  
  *************************
  Conduit Surcharge Summary
  *************************
  
  ----------------------------------------------------------------------------
                                                           Hours        Hours 
                         --------- Hours Full --------   Above Full   Capacity
  Conduit                Both Ends  Upstream  Dnstream   Normal Flow   Limited
  ----------------------------------------------------------------------------
  C08                         5.71      5.71     13.23      0.06         0.01
  C09                         0.01      0.01     40.55      0.01         0.01
  C10                        30.06     30.36     41.36      0.93         0.01
  C11                         0.01      0.01     44.03      0.01         0.01
  C12                        31.44     31.44     61.98      0.04         0.01
  C18                         1.55      1.55      3.09      0.01         0.01
  C19                         2.60      2.60      6.78      0.02         0.01
  C21                         4.31      4.84      7.50      0.79         0.01
  C22                         0.01      0.01      4.72      0.01         0.01
  
  
  ***************************
  Link Pollutant Load Summary
  ***************************
  
  ----------------------------------
                                 TSS
  Link                           lbs
  ----------------------------------
  C08                        245.768
  C09                        415.274
  C10                        905.201
  C11                        978.118
  C12                        923.568
  C18                        102.464
  C19                        157.793
  C21                        154.308
  C22                        102.364
  C95-53307                  573.864
  OR34                       123.330
  OR35                       218.671
  OR36                       317.255
  OR38                       544.265
  OR39                       405.283
  OR43                       102.351
  OR44                       416.187
  OR45                      1436.476
  OR46                       977.966
  OR47                       995.467
  OR48                      1412.984
  

  Analysis begun on:  Mon Apr  1 18:27:33 2019
  Analysis ended on:  Mon Apr  1 18:27:37 2019
  Total elapsed time: 00:00:04