
  EPA STORM WATER MANAGEMENT MODEL - VERSION 5.1 (Build 5.2.0.dev4)
  --------------------------------------------------------------

  
  **********************           Volume        Volume
  Rainfall Dependent I/I        acre-feet      10^6 gal
  **********************        ---------     ---------
  Sewershed Rainfall ......        79.074        25.768
  RDII Produced ...........        10.806         3.521
  RDII Ratio ..............         0.137
  
  
  *********************************************************
  NOTE: The summary statistics displayed in this report are
  based on results found at every computational time step,  
  not just on results from each reporting time step.
  *********************************************************
  
  ****************
  Analysis Options
  ****************
  Flow Units ............... CFS
  Process Models:
    Rainfall/Runoff ........ YES
    RDII ................... YES
    Snowmelt ............... NO
    Groundwater ............ NO
    Flow Routing ........... YES
    Ponding Allowed ........ YES
    Water Quality .......... YES
  Infiltration Method ...... GREEN_AMPT
  Flow Routing Method ...... DYNWAVE
  Starting Date ............ 07/05/2014 12:00:00
  Ending Date .............. 07/10/2014 00:05:00
  Antecedent Dry Days ...... 5.0
  Report Time Step ......... 00:01:00
  Wet Time Step ............ 00:01:00
  Dry Time Step ............ 00:01:00
  Routing Time Step ........ 60.00 sec
  Variable Time Step ....... YES
  Maximum Trials ........... 8
  Number of Threads ........ 1
  Head Tolerance ........... 0.005000 ft
  
  
  **************************        Volume         Depth
  Runoff Quantity Continuity     acre-feet        inches
  **************************     ---------       -------
  Total Precipitation ......        57.749         3.365
  Evaporation Loss .........         0.000         0.000
  Infiltration Loss ........        18.539         1.080
  Surface Runoff ...........        38.591         2.249
  Final Storage ............         0.633         0.037
  Continuity Error (%) .....        -0.023
  
  
  **************************           TSS
  Runoff Quality Continuity            lbs
  **************************    ----------
  Initial Buildup ..........      3394.520
  Surface Buildup ..........      2235.690
  Wet Deposition ...........         0.000
  Sweeping Removal .........         0.000
  Infiltration Loss ........         0.000
  BMP Removal ..............         0.000
  Surface Runoff ...........      2297.467
  Remaining Buildup ........      3332.742
  Continuity Error (%) .....         0.000
  
  
  **************************        Volume        Volume
  Flow Routing Continuity        acre-feet      10^6 gal
  **************************     ---------     ---------
  Dry Weather Inflow .......         0.000         0.000
  Wet Weather Inflow .......        38.558        12.565
  Groundwater Inflow .......         0.000         0.000
  RDII Inflow ..............        10.806         3.521
  External Inflow ..........         0.000         0.000
  External Outflow .........        17.559         5.722
  Flooding Loss ............        20.245         6.597
  Evaporation Loss .........         0.000         0.000
  Exfiltration Loss ........         0.000         0.000
  Initial Stored Volume ....         0.000         0.000
  Final Stored Volume ......        12.472         4.064
  Continuity Error (%) .....        -1.847
  
  
  **************************           TSS
  Quality Routing Continuity           lbs
  **************************    ----------
  Dry Weather Inflow .......         0.000
  Wet Weather Inflow .......      2295.228
  Groundwater Inflow .......         0.000
  RDII Inflow ..............         0.000
  External Inflow ..........         0.000
  External Outflow .........       769.814
  Flooding Loss ............      1048.487
  Exfiltration Loss ........         0.000
  Mass Reacted .............         0.000
  Initial Stored Mass ......         0.000
  Final Stored Mass ........       476.047
  Continuity Error (%) .....         0.038
  
  
  *************************
  Highest Continuity Errors
  *************************
  Node J23 (-15.29%)
  
  
  ***************************
  Time-Step Critical Elements
  ***************************
  Link C11 (73.63%)
  Link C09 (14.15%)
  Link C22 (1.38%)
  
  
  ********************************
  Highest Flow Instability Indexes
  ********************************
  Link C11 (28)
  Link OR46 (28)
  Link OR47 (23)
  Link OR35 (12)
  Link OR44 (7)
  
  
  *************************
  Routing Time Step Summary
  *************************
  Minimum Time Step           :     3.53 sec
  Average Time Step           :    16.63 sec
  Maximum Time Step           :    60.00 sec
  Percent in Steady State     :     0.00
  Average Iterations per Step :     2.28
  Percent Not Converging      :     1.39
  
  
  ***************************
  Subcatchment Runoff Summary
  ***************************
  
  --------------------------------------------------------------------------------------------------------
                            Total      Total      Total      Total      Total       Total     Peak  Runoff
                           Precip      Runon       Evap      Infil     Runoff      Runoff   Runoff   Coeff
  Subcatchment                 in         in         in         in         in    10^6 gal      CFS
  --------------------------------------------------------------------------------------------------------
  102                        3.36       0.00       0.00       1.26       2.07        0.16    10.36   0.616
  103                        3.36       0.00       0.00       1.63       1.71        0.26    19.81   0.508
  115                        3.36       0.00       0.00       1.75       1.59        0.45    22.62   0.474
  120                        3.36       0.00       0.00       1.33       2.01        0.36    24.78   0.596
  1472                       3.36       0.00       0.00       1.00       2.32        0.20    12.80   0.691
  1497                       3.36       0.00       0.00       0.38       2.93        1.19    63.89   0.871
  1499                       3.36       0.00       0.00       0.13       3.18        2.18   107.76   0.944
  1503                       3.36       0.00       0.00       0.71       2.62        0.10     5.50   0.777
  1506                       3.36       0.00       0.00       1.40       1.94        0.53    36.71   0.576
  1570                       3.36       0.00       0.00       1.88       1.46        0.31    24.81   0.435
  1648                       3.36       0.00       0.00       1.58       1.76        0.13     9.20   0.524
  1736                       3.36       0.00       0.00       1.28       2.05        0.84    55.73   0.610
  1780                       3.36       0.00       0.00       1.72       1.62        0.10     7.58   0.482
  54                         3.36       0.00       0.00       0.36       2.95        2.92   153.38   0.878
  57                         3.36       0.00       0.00       2.09       1.26        0.35    18.54   0.374
  62                         3.36       0.00       0.00       1.75       1.60        0.46    37.10   0.475
  93                         3.36       0.00       0.00       1.28       2.05        0.46    31.66   0.610
  94                         3.36       0.00       0.00       1.72       1.63        0.56    45.83   0.484
  97                         3.36       0.00       0.00       1.43       1.91        1.02    72.07   0.567
  
  
  ****************************
  Subcatchment Washoff Summary
  ****************************
  
  ----------------------------------
                                 TSS
  Subcatchment                   lbs
  ----------------------------------
  102                         32.533
  103                         52.962
  115                         90.676
  120                         74.120
  1472                        39.171
  1497                       198.043
  1499                       342.741
  1503                        17.124
  1506                       108.556
  1570                        63.492
  1648                        26.396
  1736                       169.848
  1780                        20.856
  54                         482.321
  57                          70.483
  62                          93.304
  93                          93.216
  94                         114.757
  97                         206.867
  ----------------------------------
  System                    2297.467
  
  
  ******************
  Node Depth Summary
  ******************
  
  ---------------------------------------------------------------------------------
                                 Average  Maximum  Maximum  Time of Max    Reported
                                   Depth    Depth      HGL   Occurrence   Max Depth
  Node                 Type         Feet     Feet     Feet  days hr:min        Feet
  ---------------------------------------------------------------------------------
  J13                  JUNCTION     0.07     1.00   889.17     0  11:58        1.00
  J14                  JUNCTION     0.11     1.00   882.00     0  11:51        1.00
  J15                  JUNCTION     0.21     1.00   872.00     0  11:14        1.00
  J18                  JUNCTION     0.30     1.00   875.22     0  11:47        1.00
  J19                  JUNCTION     0.14     0.40   858.68     0  12:39        0.40
  J22                  JUNCTION     0.04     0.58   879.58     0  12:10        0.58
  J23                  JUNCTION     0.11     0.48   868.48     0  12:22        0.48
  J24                  JUNCTION     0.69     1.00   847.00     0  11:54        1.00
  J25                  JUNCTION     0.38     0.49   832.99     1  18:17        0.49
  J26                  JUNCTION     0.77     1.00   822.50     0  12:03        1.00
  ZOF1                 OUTFALL      0.00     0.00   810.00     0  00:00        0.00
  93-49743             STORAGE      0.89     8.58   882.80     0  12:21        8.58
  93-49868             STORAGE      0.17     3.84   892.01     0  12:12        3.84
  93-49919             STORAGE      0.36     2.58   870.58     0  12:22        2.58
  93-49921             STORAGE      2.62     6.06   852.06     0  21:07        6.06
  93-50074             STORAGE      0.80     4.65   862.93     0  12:39        4.65
  93-50076             STORAGE      1.10     1.58   834.08     1  18:17        1.58
  93-50077             STORAGE      6.58     8.21   818.21     2  09:18        8.21
  93-50081             STORAGE      1.51     2.35   823.85     0  12:08        2.35
  93-50225             STORAGE      0.49     5.06   876.06     0  12:58        5.06
  93-90357             STORAGE      0.13     4.02   883.02     0  12:10        4.02
  93-90358             STORAGE      0.29     4.88   885.88     0  12:13        4.88
  
  
  *******************
  Node Inflow Summary
  *******************
  
  -------------------------------------------------------------------------------------------------
                                  Maximum  Maximum                  Lateral       Total        Flow
                                  Lateral    Total  Time of Max      Inflow      Inflow     Balance
                                   Inflow   Inflow   Occurrence      Volume      Volume       Error
  Node                 Type           CFS      CFS  days hr:min    10^6 gal    10^6 gal     Percent
  -------------------------------------------------------------------------------------------------
  J13                  JUNCTION      0.00     8.79     0  12:12           0       0.564      -0.030
  J14                  JUNCTION      0.00    10.28     0  12:13           0        1.01      -0.011
  J15                  JUNCTION      0.00    10.51     0  12:58           0        1.48       0.026
  J18                  JUNCTION      0.00    14.36     0  12:21           0        3.05       0.015
  J19                  JUNCTION      0.00    10.76     0  12:39           0        3.94      -0.059
  J22                  JUNCTION      0.00     9.68     0  12:10           0       0.472       0.011
  J23                  JUNCTION      0.00     7.56     0  12:22           0        1.96     -13.266
  J24                  JUNCTION      0.00    11.74     0  21:07           0        10.1       0.004
  J25                  JUNCTION      0.00     5.44     1  18:17           0        7.02       0.009
  J26                  JUNCTION      0.00     6.06     0  12:08           0        7.11       0.005
  ZOF1                 OUTFALL       0.00     2.33     2  09:18           0        5.72       0.000
  93-49743             STORAGE     120.28   120.28     0  12:00        3.05        3.05      -0.013
  93-49868             STORAGE      45.83    45.83     0  12:00       0.564       0.564       0.009
  93-49919             STORAGE      84.87    86.82     0  12:00        1.22        1.96      -0.074
  93-49921             STORAGE     145.28   160.46     0  12:00        3.98        10.2       0.063
  93-50074             STORAGE      95.55   100.66     0  12:00        1.65        3.94      -0.040
  93-50076             STORAGE      18.54    24.17     0  12:00       0.347         7.1      -0.012
  93-50077             STORAGE     153.69   159.10     0  12:00        3.92        9.62       0.075
  93-50081             STORAGE       5.50     9.27     0  12:00      0.0952        7.11      -0.007
  93-50225             STORAGE      19.81    32.90     0  12:00        0.26        1.47      -0.126
  93-90357             STORAGE      35.17    35.17     0  12:00       0.472       0.472      -0.004
  93-90358             STORAGE      36.71    42.54     0  12:00       0.534        1.01      -0.034
  
  
  **********************
  Node Surcharge Summary
  **********************
  
  Surcharging occurs when water rises above the top of the highest conduit.
  ---------------------------------------------------------------------
                                               Max. Height   Min. Depth
                                   Hours       Above Crown    Below Rim
  Node                 Type      Surcharged           Feet         Feet
  ---------------------------------------------------------------------
  J13                  JUNCTION        1.41          0.000        0.000
  J14                  JUNCTION        2.45          0.000        0.000
  J15                  JUNCTION        4.55          0.000        0.000
  J18                  JUNCTION        5.21          0.000        0.000
  J24                  JUNCTION       29.27          0.000        0.000
  J26                  JUNCTION       39.39          0.000        0.000
  
  
  *********************
  Node Flooding Summary
  *********************
  
  Flooding refers to all water that overflows a node, whether it ponds or not.
  --------------------------------------------------------------------------
                                                             Total   Maximum
                                 Maximum   Time of Max       Flood    Ponded
                        Hours       Rate    Occurrence      Volume     Depth
  Node                 Flooded       CFS   days hr:min    10^6 gal      Feet
  --------------------------------------------------------------------------
  J13                     1.41      3.67      0  12:13       0.084     0.000
  J14                     2.45      5.58      0  12:17       0.270     0.000
  J15                     4.55      8.86      0  12:55       0.736     0.000
  J18                     5.21      9.48      0  12:22       0.761     0.000
  J24                    29.27      6.26      0  21:11       3.336     0.000
  J26                    39.38      1.85      1  19:09       1.408     0.000
  
  
  **********************
  Storage Volume Summary
  **********************
  
  --------------------------------------------------------------------------------------------------
                         Average     Avg  Evap Exfil       Maximum     Max    Time of Max    Maximum
                          Volume    Pcnt  Pcnt  Pcnt        Volume    Pcnt     Occurrence    Outflow
  Storage Unit          1000 ft3    Full  Loss  Loss      1000 ft3    Full    days hr:min        CFS
  --------------------------------------------------------------------------------------------------
  93-49743                 5.848       2     0     0       104.047      38       0  12:21      14.36
  93-49868                 0.536       0     0     0        27.579      23       0  12:12       8.79
  93-49919                10.106       2     0     0        92.893      20       0  12:22       7.56
  93-49921               248.816      22     0     0       608.487      54       0  21:07      11.74
  93-50074                16.790       2     0     0       118.008      17       0  12:39      10.76
  93-50076                92.174       8     0     0       133.143      12       1  18:17       5.44
  93-50077               616.214      59     0     0       802.509      77       2  09:18       2.33
  93-50081                 2.264       8     0     0         4.107      15       0  12:08       6.06
  93-50225                 3.607       1     0     0        45.393       8       0  12:58      10.51
  93-90357                 0.370       0     0     0        20.148      27       0  12:10       9.68
  93-90358                 0.985       1     0     0        29.538      21       0  12:13      10.28
  
  
  ***********************
  Outfall Loading Summary
  ***********************
  
  -------------------------------------------------------------------------
                         Flow       Avg       Max       Total         Total
                         Freq      Flow      Flow      Volume           TSS
  Outfall Node           Pcnt       CFS       CFS    10^6 gal           lbs
  -------------------------------------------------------------------------
  ZOF1                  99.83      2.05      2.33       5.721       769.834
  -------------------------------------------------------------------------
  System                99.83      2.05      2.33       5.721       769.834
  
  
  ********************
  Link Flow Summary
  ********************
  
  -----------------------------------------------------------------------------
                                 Maximum  Time of Max   Maximum    Max/    Max/
                                  |Flow|   Occurrence   |Veloc|    Full    Full
  Link                 Type          CFS  days hr:min    ft/sec    Flow   Depth
  -----------------------------------------------------------------------------
  C08                  CONDUIT      5.88     0  11:46      7.61    1.06    1.00
  C09                  CONDUIT     33.98     0  04:05    >50.00    2.12    0.89
  C10                  CONDUIT      5.90     0  11:52      9.09    1.06    1.00
  C11                  CONDUIT      5.44     1  18:17      8.69    0.48    0.74
  C12                  CONDUIT      5.56     0  12:02      7.24    1.00    1.00
  C18                  CONDUIT      6.69     0  11:57      8.88    0.88    1.00
  C19                  CONDUIT      5.94     0  11:50      7.71    1.01    1.00
  C21                  CONDUIT      2.55     0  11:25      3.45    1.10    1.00
  C22                  CONDUIT      9.68     0  12:10      8.32    0.36    0.71
  C95-53307            CONDUIT     10.76     0  12:40      2.53    0.01    0.49
  OR34                 ORIFICE      8.79     0  12:12                          
  OR35                 ORIFICE     10.28     0  12:13                          
  OR36                 ORIFICE     10.51     0  12:58                          
  OR38                 ORIFICE     10.76     0  12:39                          
  OR39                 ORIFICE     14.36     0  12:21                          
  OR43                 ORIFICE      9.68     0  12:10                          
  OR44                 ORIFICE      7.56     0  12:22                          
  OR45                 ORIFICE     11.74     0  21:07                          
  OR46                 ORIFICE      5.44     1  18:17                          
  OR47                 ORIFICE      6.06     0  12:08                          
  OR48                 ORIFICE      2.33     2  09:18                          
  
  
  ***************************
  Flow Classification Summary
  ***************************
  
  -------------------------------------------------------------------------------------
                      Adjusted    ---------- Fraction of Time in Flow Class ---------- 
                       /Actual         Up    Down  Sub   Sup   Up    Down  Norm  Inlet 
  Conduit               Length    Dry  Dry   Dry   Crit  Crit  Crit  Crit  Ltd   Ctrl  
  -------------------------------------------------------------------------------------
  C08                     1.00   0.00  0.00  0.00  0.17  0.83  0.00  0.00  0.34  0.00
  C09                     1.00   0.00  0.01  0.00  0.80  0.19  0.00  0.00  0.96  0.00
  C10                     1.00   0.00  0.00  0.00  0.64  0.36  0.00  0.00  0.62  0.00
  C11                     1.00   0.00  0.00  0.00  0.01  0.99  0.00  0.00  0.99  0.00
  C12                     1.00   0.00  0.00  0.00  0.95  0.05  0.00  0.00  0.55  0.00
  C18                     1.00   0.03  0.04  0.00  0.93  0.01  0.00  0.00  0.79  0.00
  C19                     1.00   0.00  0.07  0.00  0.91  0.02  0.00  0.00  0.96  0.00
  C21                     1.00   0.00  0.00  0.00  0.99  0.01  0.00  0.00  0.40  0.00
  C22                     1.00   0.00  0.29  0.00  0.69  0.03  0.00  0.00  0.99  0.00
  C95-53307               1.00   0.00  0.00  0.00  0.99  0.01  0.00  0.00  0.97  0.00
  
  
  *************************
  Conduit Surcharge Summary
  *************************
  
  ----------------------------------------------------------------------------
                                                           Hours        Hours 
                         --------- Hours Full --------   Above Full   Capacity
  Conduit                Both Ends  Upstream  Dnstream   Normal Flow   Limited
  ----------------------------------------------------------------------------
  C08                         5.21      5.21     12.37      0.05         0.01
  C09                         0.01      0.01     40.70      0.18         0.01
  C10                        29.08     29.27     40.34      0.97         0.01
  C11                         0.01      0.01     44.05      0.01         0.01
  C12                        39.38     39.38     97.42      0.01         0.01
  C18                         1.41      1.41      2.91      0.01         0.01
  C19                         2.45      2.45      6.39      0.02         0.01
  C21                         4.07      4.55      7.08      0.72         0.01
  C22                         0.01      0.01      4.44      0.01         0.01
  
  
  ***************************
  Link Pollutant Load Summary
  ***************************
  
  ----------------------------------
                                 TSS
  Link                           lbs
  ----------------------------------
  C08                        240.273
  C09                        371.062
  C10                        867.569
  C11                        934.781
  C12                        760.022
  C18                         97.562
  C19                        151.188
  C21                        150.457
  C22                         95.964
  C95-53307                  559.432
  OR34                       114.654
  OR35                       206.094
  OR36                       300.338
  OR38                       530.529
  OR39                       381.749
  OR43                        95.962
  OR44                       370.608
  OR45                      1359.791
  OR46                       934.691
  OR47                       951.857
  OR48                       769.834
  

  Analysis begun on:  Mon Apr  1 18:27:38 2019
  Analysis ended on:  Mon Apr  1 18:27:42 2019
  Total elapsed time: 00:00:04