
  EPA STORM WATER MANAGEMENT MODEL - VERSION 5.1 (Build 5.2.0.dev4)
  --------------------------------------------------------------

  d[TITLE] 
  City of Ann Arbor Storm Water Model 
  10% AEP 12-Hour Design Storm (SCS/Alternating Block Distribution) 
  
  
  **********************           Volume        Volume
  Rainfall Dependent I/I        acre-feet      10^6 gal
  **********************        ---------     ---------
  Sewershed Rainfall ......        92.355        30.095
  RDII Produced ...........        12.798         4.170
  RDII Ratio ..............         0.139
  
  
  *********************************************************
  NOTE: The summary statistics displayed in this report are
  based on results found at every computational time step,  
  not just on results from each reporting time step.
  *********************************************************
  
  ****************
  Analysis Options
  ****************
  Flow Units ............... CFS
  Process Models:
    Rainfall/Runoff ........ YES
    RDII ................... YES
    Snowmelt ............... NO
    Groundwater ............ NO
    Flow Routing ........... YES
    Ponding Allowed ........ YES
    Water Quality .......... YES
  Infiltration Method ...... GREEN_AMPT
  Flow Routing Method ...... DYNWAVE
  Starting Date ............ 07/05/2014 12:00:00
  Ending Date .............. 07/20/2014 00:05:00
  Antecedent Dry Days ...... 5.0
  Report Time Step ......... 00:01:00
  Wet Time Step ............ 00:01:00
  Dry Time Step ............ 00:01:00
  Routing Time Step ........ 10.00 sec
  Variable Time Step ....... YES
  Maximum Trials ........... 8
  Number of Threads ........ 1
  Head Tolerance ........... 0.005000 ft
  
  
  **************************        Volume         Depth
  Runoff Quantity Continuity     acre-feet        inches
  **************************     ---------       -------
  Total Precipitation ......        67.449         3.930
  Evaporation Loss .........         0.000         0.000
  Infiltration Loss ........        20.840         1.214
  Surface Runoff ...........        45.992         2.680
  Final Storage ............         0.632         0.037
  Continuity Error (%) .....        -0.023
  
  
  **************************           TSS
  Runoff Quality Continuity            lbs
  **************************    ----------
  Initial Buildup ..........      3394.520
  Surface Buildup ..........      2834.431
  Wet Deposition ...........         0.000
  Sweeping Removal .........         0.000
  Infiltration Loss ........         0.000
  BMP Removal ..............         0.000
  Surface Runoff ...........      2563.517
  Remaining Buildup ........      3665.434
  Continuity Error (%) .....         0.000
  
  
  **************************        Volume        Volume
  Flow Routing Continuity        acre-feet      10^6 gal
  **************************     ---------     ---------
  Dry Weather Inflow .......         0.000         0.000
  Wet Weather Inflow .......        45.963        14.978
  Groundwater Inflow .......         0.000         0.000
  RDII Inflow ..............        12.799         4.171
  External Inflow ..........         0.000         0.000
  External Outflow .........        35.406        11.538
  Flooding Loss ............        23.322         7.600
  Evaporation Loss .........         0.000         0.000
  Exfiltration Loss ........         0.000         0.000
  Initial Stored Volume ....         0.000         0.000
  Final Stored Volume ......         0.072         0.023
  Continuity Error (%) .....        -0.064
  
  
  **************************           TSS
  Quality Routing Continuity           lbs
  **************************    ----------
  Dry Weather Inflow .......         0.000
  Wet Weather Inflow .......      2561.542
  Groundwater Inflow .......         0.000
  RDII Inflow ..............         0.000
  External Inflow ..........         0.000
  External Outflow .........      1393.260
  Flooding Loss ............      1184.512
  Exfiltration Loss ........         0.000
  Mass Reacted .............         0.000
  Initial Stored Mass ......         0.000
  Final Stored Mass ........         0.562
  Continuity Error (%) .....        -0.656
  
  
  ***************************
  Time-Step Critical Elements
  ***************************
  Link C09 (1.50%)
  
  
  ********************************
  Highest Flow Instability Indexes
  ********************************
  Link OR47 (2)
  Link C12 (2)
  
  
  *************************
  Routing Time Step Summary
  *************************
  Minimum Time Step           :     4.53 sec
  Average Time Step           :     9.96 sec
  Maximum Time Step           :    10.00 sec
  Percent in Steady State     :     0.00
  Average Iterations per Step :     2.00
  Percent Not Converging      :     0.00
  
  
  ***************************
  Subcatchment Runoff Summary
  ***************************
  
  --------------------------------------------------------------------------------------------------------
                            Total      Total      Total      Total      Total       Total     Peak  Runoff
                           Precip      Runon       Evap      Infil     Runoff      Runoff   Runoff   Coeff
  Subcatchment                 in         in         in         in         in    10^6 gal      CFS
  --------------------------------------------------------------------------------------------------------
  102                        3.93       0.00       0.00       1.41       2.48        0.19    12.74   0.632
  103                        3.93       0.00       0.00       1.83       2.07        0.32    24.58   0.527
  115                        3.93       0.00       0.00       1.96       1.95        0.55    28.45   0.497
  120                        3.93       0.00       0.00       1.49       2.41        0.44    30.39   0.612
  1472                       3.93       0.00       0.00       1.13       2.76        0.24    15.46   0.703
  1497                       3.93       0.00       0.00       0.43       3.45        1.40    75.75   0.877
  1499                       3.93       0.00       0.00       0.15       3.73        2.55   127.40   0.948
  1503                       3.93       0.00       0.00       0.79       3.09        0.11     6.59   0.787
  1506                       3.93       0.00       0.00       1.57       2.33        0.64    45.33   0.593
  1570                       3.93       0.00       0.00       2.11       1.80        0.38    31.44   0.457
  1648                       3.93       0.00       0.00       1.77       2.13        0.16    11.51   0.543
  1736                       3.93       0.00       0.00       1.44       2.46        1.00    68.41   0.625
  1780                       3.93       0.00       0.00       1.93       1.97        0.12     9.56   0.502
  54                         3.93       0.00       0.00       0.40       3.47        3.43   182.14   0.884
  57                         3.93       0.00       0.00       2.35       1.56        0.43    23.66   0.398
  62                         3.93       0.00       0.00       1.96       1.95        0.56    46.17   0.496
  93                         3.93       0.00       0.00       1.44       2.46        0.55    38.56   0.625
  94                         3.93       0.00       0.00       1.93       1.98        0.69    56.59   0.504
  97                         3.93       0.00       0.00       1.61       2.29        1.22    88.68   0.584
  
  
  ****************************
  Subcatchment Washoff Summary
  ****************************
  
  ----------------------------------
                                 TSS
  Subcatchment                   lbs
  ----------------------------------
  102                         35.749
  103                         64.214
  115                        111.062
  120                         82.970
  1472                        41.697
  1497                       209.070
  1499                       362.484
  1503                        18.037
  1506                       123.892
  1570                        78.039
  1648                        31.829
  1736                       187.752
  1780                        25.399
  54                         509.269
  57                          87.458
  62                         113.804
  93                         102.952
  94                         139.617
  97                         238.224
  ----------------------------------
  System                    2563.517
  
  
  ******************
  Node Depth Summary
  ******************
  
  ---------------------------------------------------------------------------------
                                 Average  Maximum  Maximum  Time of Max    Reported
                                   Depth    Depth      HGL   Occurrence   Max Depth
  Node                 Type         Feet     Feet     Feet  days hr:min        Feet
  ---------------------------------------------------------------------------------
  J13                  JUNCTION     0.02     1.00   889.17     0  11:51        1.00
  J14                  JUNCTION     0.03     1.00   882.00     0  11:49        1.00
  J15                  JUNCTION     0.05     1.00   872.00     0  10:57        1.00
  J18                  JUNCTION     0.08     1.00   875.22     0  11:44        1.00
  J19                  JUNCTION     0.03     0.41   858.69     0  12:40        0.41
  J22                  JUNCTION     0.01     0.61   879.61     0  12:11        0.61
  J23                  JUNCTION     0.02     0.81   868.81     0  12:00        0.81
  J24                  JUNCTION     0.18     1.00   847.00     0  11:46        1.00
  J25                  JUNCTION     0.11     0.44   832.94     1  23:06        0.44
  J26                  JUNCTION     0.21     1.00   822.50     0  12:05        1.00
  ZOF1                 OUTFALL      0.00     0.00   810.00     0  00:00        0.00
  93-49743             STORAGE      0.24     9.90   884.12     0  12:25        9.90
  93-49868             STORAGE      0.05    10.00   898.17     0  11:58       10.00
  93-49919             STORAGE      0.10    10.00   878.00     0  12:00       10.00
  93-49921             STORAGE      0.60     6.59   852.59     0  21:59        6.59
  93-50074             STORAGE      0.19     5.26   863.54     0  12:39        5.26
  93-50076             STORAGE      0.48     3.05   835.55     1  23:06        3.05
  93-50077             STORAGE      3.12     8.22   818.22     2  23:15        8.22
  93-50081             STORAGE      0.35     2.12   823.62     0  12:07        2.12
  93-50225             STORAGE      0.12     5.49   876.49     0  13:07        5.49
  93-90357             STORAGE      0.04     4.76   883.76     0  12:11        4.76
  93-90358             STORAGE      0.07     5.37   886.37     0  12:13        5.37
  
  
  *******************
  Node Inflow Summary
  *******************
  
  -------------------------------------------------------------------------------------------------
                                  Maximum  Maximum                  Lateral       Total        Flow
                                  Lateral    Total  Time of Max      Inflow      Inflow     Balance
                                   Inflow   Inflow   Occurrence      Volume      Volume       Error
  Node                 Type           CFS      CFS  days hr:min    10^6 gal    10^6 gal     Percent
  -------------------------------------------------------------------------------------------------
  J13                  JUNCTION      0.00    15.65     0  11:58           0       0.567       0.004
  J14                  JUNCTION      0.00    10.91     0  12:13           0        1.05      -0.014
  J15                  JUNCTION      0.00    13.63     0  12:18           0        1.75       0.023
  J18                  JUNCTION      0.00    15.56     0  12:25           0        3.65      -0.025
  J19                  JUNCTION      0.00    11.49     0  12:39           0        4.52      -0.051
  J22                  JUNCTION      0.00    10.63     0  12:11           0       0.575      -0.001
  J23                  JUNCTION      0.00    15.82     0  12:00           0        1.96      -0.001
  J24                  JUNCTION      0.00    12.33     0  21:59           0        11.2      -0.001
  J25                  JUNCTION      0.00     4.60     1  23:06           0        7.42      -0.001
  J26                  JUNCTION      0.00     5.55     0  12:04           0        7.53      -0.013
  ZOF1                 OUTFALL       0.00     2.62     2  23:15           0        11.5       0.000
  93-49743             STORAGE     148.79   148.79     0  12:00        3.66        3.65       0.021
  93-49868             STORAGE      56.59    56.59     0  12:00       0.686       0.686      -0.128
  93-49919             STORAGE     104.13   104.13     0  12:00        1.46        2.24      -0.052
  93-49921             STORAGE     174.11   199.46     0  12:00        4.71        11.2       0.018
  93-50074             STORAGE     114.30   119.32     0  12:00        1.95        4.52      -0.031
  93-50076             STORAGE      23.66    29.24     0  12:00        0.43        7.43      -0.025
  93-50077             STORAGE     182.54   187.62     0  12:00        4.61        11.5      -0.030
  93-50081             STORAGE       6.59     8.98     0  12:00       0.113        7.53       0.013
  93-50225             STORAGE      24.58    38.39     0  12:00       0.316        1.67      -0.136
  93-90357             STORAGE      44.19    44.19     0  12:00       0.575       0.575      -0.001
  93-90358             STORAGE      45.33    50.85     0  12:00       0.641        1.04      -0.076
  
  
  **********************
  Node Surcharge Summary
  **********************
  
  Surcharging occurs when water rises above the top of the highest conduit.
  ---------------------------------------------------------------------
                                               Max. Height   Min. Depth
                                   Hours       Above Crown    Below Rim
  Node                 Type      Surcharged           Feet         Feet
  ---------------------------------------------------------------------
  J13                  JUNCTION        0.84          0.000        0.000
  J14                  JUNCTION        2.27          0.000        0.000
  J15                  JUNCTION        5.03          0.000        0.000
  J18                  JUNCTION        6.66          0.000        0.000
  J24                  JUNCTION       32.36          0.000        0.000
  J26                  JUNCTION       33.11          0.000        0.000
  
  
  *********************
  Node Flooding Summary
  *********************
  
  Flooding refers to all water that overflows a node, whether it ponds or not.
  --------------------------------------------------------------------------
                                                             Total   Maximum
                                 Maximum   Time of Max       Flood    Ponded
                        Hours       Rate    Occurrence      Volume     Depth
  Node                 Flooded       CFS   days hr:min    10^6 gal      Feet
  --------------------------------------------------------------------------
  J13                     0.84     10.90      0  12:10       0.163     0.000
  J14                     2.27      6.35      0  12:17       0.270     0.000
  J15                     5.03     13.63      0  12:18       0.971     0.000
  J18                     6.66     10.81      0  12:25       1.083     0.000
  J24                    32.36      7.01      0  22:24       4.183     0.000
  J26                    33.10      1.00      2  00:28       0.607     0.000
  93-49868                0.19     40.81      0  12:00       0.120     0.000
  93-49919                0.19     84.93      0  12:00       0.201     0.000
  
  
  **********************
  Storage Volume Summary
  **********************
  
  --------------------------------------------------------------------------------------------------
                         Average     Avg  Evap Exfil       Maximum     Max    Time of Max    Maximum
                          Volume    Pcnt  Pcnt  Pcnt        Volume    Pcnt     Occurrence    Outflow
  Storage Unit          1000 ft3    Full  Loss  Loss      1000 ft3    Full    days hr:min        CFS
  --------------------------------------------------------------------------------------------------
  93-49743                 1.740       1     0     0       133.102      48       0  12:25      15.56
  93-49868                 0.041       0     0     0        12.966     100       0  11:58      15.65
  93-49919                 0.346       1     0     0        45.480     100       0  12:00      19.11
  93-49921                57.544       5     0     0       671.947      60       0  21:59      12.33
  93-50074                 4.186       1     0     0       141.561      21       0  12:39      11.49
  93-50076                41.858       4     0     0       273.633      25       1  23:06       4.60
  93-50077               294.699      26     0     0       857.008      77       2  23:15       2.62
  93-50081                 0.386       1     0     0         3.488      12       0  12:07       5.55
  93-50225                 0.952       0     0     0        53.888       9       0  13:07      11.05
  93-90357                 0.137       0     0     0        26.864      36       0  12:11      10.63
  93-90358                 0.251       0     0     0        36.754      26       0  12:13      10.91
  
  
  ***********************
  Outfall Loading Summary
  ***********************
  
  -------------------------------------------------------------------------
                         Flow       Avg       Max       Total         Total
                         Freq      Flow      Flow      Volume           TSS
  Outfall Node           Pcnt       CFS       CFS    10^6 gal           lbs
  -------------------------------------------------------------------------
  ZOF1                  99.83      1.24      2.62      11.537      1393.258
  -------------------------------------------------------------------------
  System                99.83      1.24      2.62      11.537      1393.258
  
  
  ********************
  Link Flow Summary
  ********************
  
  -----------------------------------------------------------------------------
                                 Maximum  Time of Max   Maximum    Max/    Max/
                                  |Flow|   Occurrence   |Veloc|    Full    Full
  Link                 Type          CFS  days hr:min    ft/sec    Flow   Depth
  -----------------------------------------------------------------------------
  C08                  CONDUIT      5.85     0  11:43      7.58    1.06    1.00
  C09                  CONDUIT     15.82     0  12:00     21.19    0.99    0.90
  C10                  CONDUIT      5.91     0  11:44      8.96    1.06    1.00
  C11                  CONDUIT      4.60     1  23:06      7.58    0.40    0.72
  C12                  CONDUIT      5.40     0  12:04      7.05    0.97    1.00
  C18                  CONDUIT      7.28     0  11:51      9.50    0.96    1.00
  C19                  CONDUIT      5.91     0  11:48      7.67    1.01    1.00
  C21                  CONDUIT      3.29     0  12:07      4.19    1.41    1.00
  C22                  CONDUIT     10.63     0  12:11      8.99    0.39    0.72
  C95-53307            CONDUIT     11.49     0  12:40      3.09    0.01    0.53
  OR34                 ORIFICE     15.65     0  11:58                          
  OR35                 ORIFICE     10.91     0  12:13                          
  OR36                 ORIFICE     11.05     0  13:07                          
  OR38                 ORIFICE     11.49     0  12:39                          
  OR39                 ORIFICE     15.56     0  12:25                          
  OR43                 ORIFICE     10.63     0  12:11                          
  OR44                 ORIFICE     15.82     0  12:00                          
  OR45                 ORIFICE     12.33     0  21:59                          
  OR46                 ORIFICE      4.60     1  23:06                          
  OR47                 ORIFICE      5.55     0  12:04                          
  OR48                 ORIFICE      2.62     2  23:15                          
  
  
  ***************************
  Flow Classification Summary
  ***************************
  
  -------------------------------------------------------------------------------------
                      Adjusted    ---------- Fraction of Time in Flow Class ---------- 
                       /Actual         Up    Down  Sub   Sup   Up    Down  Norm  Inlet 
  Conduit               Length    Dry  Dry   Dry   Crit  Crit  Crit  Crit  Ltd   Ctrl  
  -------------------------------------------------------------------------------------
  C08                     1.00   0.00  0.01  0.00  0.71  0.28  0.00  0.00  0.18  0.00
  C09                     1.00   0.00  0.00  0.00  0.94  0.06  0.00  0.00  0.99  0.00
  C10                     1.00   0.00  0.00  0.00  0.95  0.05  0.00  0.00  0.87  0.00
  C11                     1.00   0.00  0.00  0.00  0.02  0.98  0.00  0.00  1.00  0.00
  C12                     1.00   0.00  0.00  0.00  0.68  0.32  0.00  0.00  0.54  0.00
  C18                     1.00   0.00  0.00  0.00  1.00  0.00  0.00  0.00  0.12  0.00
  C19                     1.00   0.00  0.77  0.00  0.22  0.01  0.00  0.00  0.99  0.00
  C21                     1.00   0.00  0.00  0.00  1.00  0.00  0.00  0.00  0.05  0.00
  C22                     1.00   0.00  0.84  0.00  0.15  0.01  0.00  0.00  1.00  0.00
  C95-53307               1.00   0.00  0.55  0.00  0.44  0.01  0.00  0.00  0.99  0.00
  
  
  *************************
  Conduit Surcharge Summary
  *************************
  
  ----------------------------------------------------------------------------
                                                           Hours        Hours 
                         --------- Hours Full --------   Above Full   Capacity
  Conduit                Both Ends  Upstream  Dnstream   Normal Flow   Limited
  ----------------------------------------------------------------------------
  C08                         6.66      6.66     14.31      0.07         0.01
  C09                         0.01      0.01     42.56      0.01         0.01
  C10                        32.15     32.36     60.14      0.50         0.01
  C11                         0.01      0.01     52.96      0.01         0.01
  C12                        33.10     33.10    193.44      0.01         0.01
  C18                         0.84      0.84      2.84      0.01         0.01
  C19                         2.27      2.27      7.24      0.02         0.01
  C21                         3.78      5.04      4.09      2.62         0.01
  C22                         0.01      0.01      5.00      0.01         0.01
  C95-53307                   0.01      0.01      4.74      0.01         0.01
  
  
  ***************************
  Link Pollutant Load Summary
  ***************************
  
  ----------------------------------
                                 TSS
  Link                           lbs
  ----------------------------------
  C08                        247.052
  C09                        371.072
  C10                        852.553
  C11                        939.478
  C12                        884.998
  C18                         82.137
  C19                        151.423
  C21                        163.607
  C22                        113.762
  C95-53307                  587.921
  OR34                       115.253
  OR35                       206.066
  OR36                       329.669
  OR38                       557.715
  OR39                       438.824
  OR43                       113.710
  OR44                       371.026
  OR45                      1420.205
  OR46                       939.372
  OR47                       957.282
  OR48                      1393.258
  

  Analysis begun on:  Wed Mar  6 08:52:55 2019
  Analysis ended on:  Wed Mar  6 08:53:00 2019
  Total elapsed time: 00:00:05